*SOIL-PLANT-ATMOSPHERE MODULE OUTPUT FILE

*DSSAT Cropping System Model Ver. 4.8.2.000 -release  DEC 29, 2025 16:23:24

*RUN   1        : F1 NE 4                   RICER048 CRDA1201    1
 MODEL          : RICER048 - Rice
 EXPERIMENT     : CRDA1201 WH ESSAI VARIETE DAROU PAKA 2012
 DATA PATH      :
 TREATMENT  1   : F1 NE 4                   RICER048
  
!                                                                                                                                                                                        Soil evaporation (mm/d) by soil depth (cm):
!                                                                                                                                                                                        0-5    5-15   15-30   30-45   45-60   60-80  80-100
@YEAR DOY   DAS   SRAA  TMAXA  TMINA    REFA    EOAA    EOPA    EOSA    ETAA    EPAA    ESAA    EFAA    EMAA    EOAC    ETAC    EPAC    ESAC    EFAC    EMAC    KCAA    KBSA    KEAA    ES1D    ES2D    ES3D    ES4D    ES5D    ES6D    ES7D   TRWUD   TWUPD
 2012 153     1  24.60  42.70  25.80 -99.000  10.835   0.000  10.835   6.360   0.000   6.360   0.000   0.000   10.84    6.36    0.00    6.36    0.00    0.00 -99.000 -99.000 -99.000   1.687   1.176   1.067   0.739   0.580   0.603   0.507   0.000   0.000
 2012 154     2  24.00  43.50  26.60 -99.000  11.084   0.000  11.084   6.148   0.000   6.148   0.000   0.000   21.92   12.51    0.00   12.51    0.00    0.00 -99.000 -99.000 -99.000   1.548   1.136   1.049   0.735   0.576   0.599   0.504   0.000   0.000
 2012 155     3  20.80  43.70  27.70 -99.000   9.628   0.000   9.628   1.081   0.000   1.081   0.000   0.000   31.55   13.59    0.00   13.59    0.00    0.00 -99.000 -99.000 -99.000   0.888   0.120   0.041   0.015   0.008   0.006   0.003   0.000   0.000
 2012 156     4  16.80  43.30  28.40 -99.000   7.647   0.000   7.647   1.036   0.000   1.036   0.000   0.000   39.19   14.62    0.00   14.62    0.00    0.00 -99.000 -99.000 -99.000   0.843   0.119   0.041   0.015   0.008   0.006   0.003   0.000   0.000
 2012 157     5  18.60  42.20  27.60 -99.000   8.036   0.000   8.036   6.103   0.000   6.103   0.000   0.000   47.23   20.73    0.00   20.73    0.00    0.00 -99.000 -99.000 -99.000   1.566   1.118   1.035   0.726   0.567   0.592   0.499   0.000   0.000
 2012 158     6  21.60  41.90  27.60 -99.000   9.377   0.000   9.377   6.059   0.000   6.059   0.000   0.000   56.61   26.79    0.00   26.79    0.00    0.00 -99.000 -99.000 -99.000   1.554   1.112   1.033   0.723   0.558   0.585   0.493   0.000   0.000
 2012 159     7  24.70  39.70  28.80 -99.000   9.652   0.000   9.652   1.081   0.000   1.081   0.000   0.000   66.26   27.87    0.00   27.87    0.00    0.00 -99.000 -99.000 -99.000   0.892   0.118   0.041   0.015   0.008   0.005   0.003   0.000   0.000
 2012 160     8  16.20  38.30  28.30 -99.000   5.876   0.000   5.876   0.999   0.000   0.999   0.000   0.000   72.14   28.87    0.00   28.87    0.00    0.00 -99.000 -99.000 -99.000   0.810   0.117   0.041   0.015   0.008   0.005   0.003   0.000   0.000
 2012 161     9  23.60  38.80  28.40 -99.000   8.741   0.000   8.741   0.925   0.000   0.925   0.000   0.000   80.88   29.79    0.00   29.79    0.00    0.00 -99.000 -99.000 -99.000   0.737   0.116   0.041   0.015   0.008   0.005   0.003   0.000   0.000
 2012 162    10  10.60  34.40  28.40 -99.000   3.197   0.000   3.197   1.031   0.000   1.031   0.000   0.000   84.07   30.82    0.00   30.82    0.00    0.00 -99.000 -99.000 -99.000   0.841   0.117   0.041   0.015   0.008   0.005   0.003   0.000   0.000
 2012 163    11  25.10  34.10  27.30 -99.000   7.603   0.000   7.603   1.127   0.000   1.127   0.000   0.000   91.68   31.95    0.00   31.95    0.00    0.00 -99.000 -99.000 -99.000   0.936   0.118   0.041   0.015   0.008   0.005   0.003   0.000   0.000
 2012 164    12  15.90  39.90  27.10 -99.000   6.192   0.000   6.192   1.041   0.000   1.041   0.000   0.000   97.87   32.99    0.00   32.99    0.00    0.00 -99.000 -99.000 -99.000   0.851   0.118   0.041   0.015   0.008   0.005   0.003   0.000   0.000
 2012 165    13  19.80  40.20  26.40 -99.000   7.752   0.000   7.752   0.963   0.000   0.963   0.000   0.000  105.62   33.95    0.00   33.95    0.00    0.00 -99.000 -99.000 -99.000   0.774   0.117   0.041   0.015   0.008   0.005   0.003   0.000   0.000
 2012 166    14  12.80  36.80  27.30 -99.000   4.253   0.000   4.253   0.891   0.000   0.891   0.000   0.000  109.87   34.84    0.00   34.84    0.00    0.00 -99.000 -99.000 -99.000   0.703   0.116   0.041   0.015   0.008   0.005   0.003   0.000   0.000
 2012 167    15  23.50  36.20  27.70 -99.000   7.560   0.000   7.560   0.827   0.000   0.827   0.000   0.000  117.43   35.67    0.00   35.67    0.00    0.00 -99.000 -99.000 -99.000   0.639   0.116   0.041   0.015   0.007   0.005   0.003   0.000   0.000
 2012 168    16  25.40  39.50  26.10 -99.000   9.506   0.000   9.506   0.768   0.000   0.768   0.000   0.000  126.94   36.44    0.00   36.44    0.00    0.00 -99.000 -99.000 -99.000   0.581   0.115   0.040   0.015   0.007   0.005   0.003   0.000   0.000
 2012 169    17  24.60  41.30  26.40 -99.000   9.990   0.000   9.990   1.017   0.000   1.017   0.000   0.000  136.93   37.45    0.00   37.45    0.00    0.00 -99.000 -99.000 -99.000   0.826   0.119   0.041   0.015   0.007   0.005   0.003   0.000   0.000
 2012 170    18  25.00  42.40  25.50 -99.000  10.899   0.000  10.899   6.124   0.000   6.124   0.000   0.000  147.83   43.58    0.00   43.58    0.00    0.00 -99.000 -99.000 -99.000   1.644   1.128   1.030   0.710   0.549   0.576   0.487   0.000   0.000
 2012 171    19  19.10  38.90  24.70 -99.000   7.038   0.000   7.038   5.865   0.000   5.865   0.000   0.000  154.86   49.44    0.00   49.44    0.00    0.00 -99.000 -99.000 -99.000   1.465   1.094   1.020   0.695   0.540   0.568   0.482   0.000   0.000
 2012 172    20  17.40  39.10  26.10 -99.000   6.480   0.000   6.480   1.026   0.000   1.026   0.000   0.000  161.34   50.47    0.00   50.47    0.00    0.00 -99.000 -99.000 -99.000   0.840   0.116   0.040   0.014   0.007   0.005   0.003   0.000   0.000
 2012 173    21  24.20  35.60  25.60 -99.000   7.487   0.000   7.487   5.902   0.000   5.902   0.000   0.000  168.83   56.37    0.00   56.37    0.00    0.00 -99.000 -99.000 -99.000   1.536   1.100   1.017   0.681   0.531   0.561   0.476   0.000   0.000
 2012 174    22  24.80  39.40  25.10 -99.000   9.459   0.000   9.459   5.906   0.000   5.906   0.000   0.000  178.29   62.28    0.00   62.28    0.00    0.00 -99.000 -99.000 -99.000   1.556   1.107   1.028   0.669   0.522   0.553   0.471   0.000   0.000
 2012 175    23  19.00  39.60  24.30 -99.000   7.183   0.000   7.183   1.079   0.000   1.079   0.000   0.000  185.47   63.36    0.00   63.36    0.00    0.00 -99.000 -99.000 -99.000   0.892   0.117   0.041   0.014   0.007   0.005   0.003   0.000   0.000
 2012 176    24  24.10  37.50  27.10 -99.000   8.337   0.000   8.337   0.997   0.000   0.997   0.000   0.000  193.81   64.35    0.00   64.35    0.00    0.00 -99.000 -99.000 -99.000   0.811   0.116   0.041   0.014   0.007   0.005   0.003   0.000   0.000
 2012 177    25  14.40  29.30  25.70 -99.000   4.064   0.000   4.064   0.923   0.000   0.923   0.000   0.000  197.87   65.28    0.00   65.28    0.00    0.00 -99.000 -99.000 -99.000   0.737   0.116   0.041   0.014   0.007   0.005   0.003   0.000   0.000
 2012 178    26  21.90  35.40  24.90 -99.000   6.638   0.000   6.638   0.855   0.000   0.855   0.000   0.000  204.51   66.13    0.00   66.13    0.00    0.00 -99.000 -99.000 -99.000   0.670   0.115   0.041   0.014   0.007   0.005   0.003   0.000   0.000
 2012 179    27  25.60  32.00  25.60 -99.000   7.373   0.000   7.373   0.793   0.000   0.793   0.000   0.000  211.89   66.93    0.00   66.93    0.00    0.00 -99.000 -99.000 -99.000   0.609   0.114   0.041   0.014   0.007   0.005   0.003   0.000   0.000
 2012 180    28  23.20  35.40  24.10 -99.000   6.950   0.000   6.950   1.007   0.000   1.007   0.000   0.000  218.84   67.93    0.00   67.93    0.00    0.00 -99.000 -99.000 -99.000   0.820   0.118   0.041   0.014   0.007   0.005   0.003   0.000   0.000
 2012 181    29  22.00  34.80  24.60 -99.000   6.617   0.000   6.617   6.076   0.000   6.076   0.000   0.000  225.45   74.01    0.00   74.01    0.00    0.00 -99.000 -99.000 -99.000   1.722   1.138   1.029   0.663   0.513   0.546   0.466   0.000   0.000
 2012 182    30  11.70  32.60  24.40 -99.000   3.457   0.000   3.457   3.457   0.000   3.457   0.000   0.000  228.91   77.47    0.00   77.47    0.00    0.00 -99.000 -99.000 -99.000   0.999   0.663   0.586   0.378   0.279   0.298   0.255   0.000   0.000
 2012 183    31  22.70  33.40  25.20 -99.000   6.823   0.000   6.823   6.471   0.000   6.471   0.000   0.000  235.73   83.94    0.00   83.94    0.00    0.00 -99.000 -99.000 -99.000   1.855   1.278   1.102   0.729   0.516   0.534   0.458   0.000   0.000
 2012 184    32  22.40  33.40  24.80 -99.000   6.687   0.000   6.687   6.438   0.000   6.438   0.000   0.000  242.42   90.38    0.00   90.38    0.00    0.00 -99.000 -99.000 -99.000   1.797   1.257   1.107   0.752   0.545   0.527   0.453   0.000   0.000
 2012 185    33  23.30  35.10  23.40 -99.000   7.006   0.000   7.006   6.288   0.000   6.288   0.000   0.000  249.43   96.66    0.00   96.66    0.00    0.00 -99.000 -99.000 -99.000   1.775   1.175   1.064   0.743   0.565   0.521   0.445   0.000   0.000
 2012 186    34  17.70  34.70  24.10 -99.000   5.348   0.000   5.348   5.348   0.000   5.348   0.000   0.000  254.77  102.01    0.00  102.01    0.00    0.00 -99.000 -99.000 -99.000   1.419   0.999   0.913   0.643   0.505   0.479   0.390   0.000   0.000
 2012 187    35  23.00  31.70  25.30 -99.000   6.705   0.000   6.705   1.065   0.000   1.065   0.000   0.000  261.48  103.08    0.00  103.08    0.00    0.00 -99.000 -99.000 -99.000   0.881   0.114   0.039   0.015   0.008   0.005   0.003   0.000   0.000
 2012 188    36  24.60  35.30  25.50 -99.000   7.518   0.000   7.518   0.992   0.000   0.992   0.000   0.000  269.00  104.07    0.00  104.07    0.00    0.00 -99.000 -99.000 -99.000   0.809   0.113   0.039   0.015   0.008   0.005   0.003   0.000   0.000
 2012 189    37  24.70  38.90  25.20 -99.000   9.029   0.000   9.029   0.925   0.000   0.925   0.000   0.000  278.02  104.99    0.00  104.99    0.00    0.00 -99.000 -99.000 -99.000   0.742   0.113   0.039   0.015   0.008   0.005   0.003   0.000   0.000
 2012 190    38  20.10  33.30  25.20 -99.000   5.885   0.000   5.885   0.863   0.000   0.863   0.000   0.000  283.91  105.86    0.00  105.86    0.00    0.00 -99.000 -99.000 -99.000   0.681   0.112   0.039   0.015   0.008   0.005   0.003   0.000   0.000
 2012 191    39  20.70  31.60  25.50 -99.000   5.949   0.000   5.949   0.806   0.000   0.806   0.000   0.000  289.86  106.66    0.00  106.66    0.00    0.00 -99.000 -99.000 -99.000   0.625   0.111   0.039   0.015   0.008   0.005   0.003   0.000   0.000
 2012 192    40  19.40  31.90  24.40 -99.000   5.534   0.000   5.534   0.754   0.000   0.754   0.000   0.000  295.39  107.42    0.00  107.42    0.00    0.00 -99.000 -99.000 -99.000   0.574   0.111   0.039   0.015   0.008   0.005   0.003   0.000   0.000
 2012 193    41  19.90  33.00  25.20 -99.000   5.757   0.000   5.757   0.706   0.000   0.706   0.000   0.000  301.15  108.12    0.00  108.12    0.00    0.00 -99.000 -99.000 -99.000   0.527   0.110   0.039   0.015   0.008   0.005   0.003   0.000   0.000
 2012 194    42  21.00  33.70  24.80 -99.000   6.087   0.000   6.087   0.662   0.000   0.662   0.000   0.000  307.24  108.78    0.00  108.78    0.00    0.00 -99.000 -99.000 -99.000   0.483   0.110   0.039   0.015   0.008   0.005   0.003   0.000   0.000
 2012 195    43  24.10  35.10  25.10 -99.000   7.115   0.000   7.115   0.622   0.000   0.622   0.000   0.000  314.35  109.41    0.00  109.41    0.00    0.00 -99.000 -99.000 -99.000   0.444   0.109   0.039   0.015   0.008   0.005   0.003   0.000   0.000
 2012 196    44  23.80  32.90  24.70 -99.000   6.808   0.000   6.808   0.854   0.000   0.854   0.000   0.000  321.16  110.26    0.00  110.26    0.00    0.00 -99.000 -99.000 -99.000   0.675   0.110   0.039   0.015   0.008   0.005   0.003   0.000   0.000
 2012 197    45  21.00  33.20  25.20 -99.000   6.220   0.000   6.220   6.220   0.000   6.220   0.000   0.000  327.38  116.48    0.00  116.48    0.00    0.00 -99.000 -99.000 -99.000   1.708   1.181   1.041   0.727   0.569   0.559   0.435   0.000   0.000
 2012 198    46  24.00  33.00  25.40 -99.000   7.190   0.000   7.190   6.287   0.000   6.287   0.000   0.000  334.57  122.77    0.00  122.77    0.00    0.00 -99.000 -99.000 -99.000   1.687   1.212   1.073   0.740   0.577   0.565   0.432   0.000   0.000
 2012 199    47  20.70  31.50  25.70 -99.000   6.051   0.000   6.051   5.929   0.000   5.929   0.000   0.000  340.62  128.70    0.00  128.70    0.00    0.00 -99.000 -99.000 -99.000   1.460   1.123   1.041   0.733   0.574   0.570   0.427   0.000   0.000
 2012 200    48  18.60  35.00  25.00 -99.000   5.568   0.000   5.568   5.568   0.000   5.568   0.000   0.000  346.19  134.27    0.00  134.27    0.00    0.00 -99.000 -99.000 -99.000   1.473   1.045   0.951   0.666   0.523   0.521   0.388   0.000   0.000
 2012 201    49  22.30  36.00  24.60 -99.000   7.155   0.000   7.155   6.155   0.000   6.155   0.000   0.000  353.34  140.42    0.00  140.42    0.00    0.00 -99.000 -99.000 -99.000   1.663   1.165   1.047   0.727   0.572   0.562   0.419   0.000   0.000
 2012 202    50  18.00  30.60  25.80 -99.000   5.213   0.000   5.213   5.213   0.000   5.213   0.000   0.000  358.56  145.63    0.00  145.63    0.00    0.00 -99.000 -99.000 -99.000   1.398   0.977   0.894   0.622   0.489   0.476   0.356   0.000   0.000
 2012 203    51  21.70  35.20  25.30 -99.000   6.668   0.000   6.668   5.915   0.000   5.915   0.000   0.000  365.23  151.55    0.00  151.55    0.00    0.00 -99.000 -99.000 -99.000   1.524   1.110   1.033   0.722   0.567   0.548   0.410   0.000   0.000
 2012 204    52  24.70  35.70  22.90 -99.000   7.591   0.000   7.591   1.054   0.000   1.054   0.000   0.000  372.82  152.60    0.00  152.60    0.00    0.00 -99.000 -99.000 -99.000   0.867   0.116   0.040   0.015   0.008   0.005   0.003   0.000   0.000
 2012 205    53  23.70  33.80  22.60 -99.000   6.881   0.000   6.881   0.976   0.000   0.976   0.000   0.000  379.70  153.58    0.00  153.58    0.00    0.00 -99.000 -99.000 -99.000   0.790   0.116   0.040   0.015   0.008   0.005   0.003   0.000   0.000
 2012 206    54  17.10  32.40  24.50 -99.000   4.939   0.000   4.939   0.904   0.000   0.904   0.000   0.000  384.64  154.48    0.00  154.48    0.00    0.00 -99.000 -99.000 -99.000   0.719   0.115   0.040   0.015   0.008   0.005   0.003   0.000   0.000
 2012 207    55  21.70  33.50  24.20 -99.000   6.303   0.000   6.303   0.839   0.000   0.839   0.000   0.000  390.94  155.32    0.00  155.32    0.00    0.00 -99.000 -99.000 -99.000   0.654   0.114   0.040   0.015   0.008   0.005   0.003   0.000   0.000
 2012 208    56  23.00  33.10  24.40 -99.000   6.641   0.000   6.641   0.780   0.000   0.780   0.000   0.000  397.58  156.10    0.00  156.10    0.00    0.00 -99.000 -99.000 -99.000   0.595   0.114   0.040   0.015   0.008   0.005   0.003   0.000   0.000
 2012 209    57  19.50  31.70  24.80 -99.000   5.549   0.000   5.549   0.725   0.000   0.725   0.000   0.000  403.13  156.83    0.00  156.83    0.00    0.00 -99.000 -99.000 -99.000   0.542   0.113   0.040   0.015   0.008   0.005   0.003   0.000   0.000
 2012 210    58  16.80  28.30  24.80 -99.000   4.600   0.000   4.600   0.766   0.000   0.766   0.000   0.000  407.73  157.59    0.00  157.59    0.00    0.00 -99.000 -99.000 -99.000   0.583   0.112   0.040   0.015   0.008   0.005   0.003   0.000   0.000
 2012 211    59  16.60  31.10  24.10 -99.000   4.691   0.009   4.682   4.691   0.009   4.682   0.000   0.000  412.42  162.28    0.01  162.27    0.00    0.00 -99.000 -99.000 -99.000   1.156   0.901   0.831   0.582   0.451   0.435   0.326   0.001   0.157
 2012 212    60   9.80  30.80  24.60 -99.000   2.851   0.007   2.844   2.851   0.007   2.844   0.000   0.000  415.27  165.13    0.02  165.12    0.00    0.00 -99.000 -99.000 -99.000   0.749   0.538   0.495   0.345   0.268   0.257   0.191   0.001   0.262
 2012 213    61  21.90  31.50  24.30 -99.000   6.339   0.054   6.317   5.882   0.054   5.827   0.000   0.000  421.61  171.02    0.07  170.95    0.00    0.00 -99.000 -99.000 -99.000   1.460   1.104   1.028   0.721   0.571   0.543   0.400   0.005   0.261
 2012 214    62  16.60  29.90  24.40 -99.000   4.691   0.049   4.671   1.072   0.049   1.023   0.000   0.000  426.30  172.09    0.12  171.97    0.00    0.00 -99.000 -99.000 -99.000   0.835   0.117   0.040   0.015   0.008   0.005   0.003   0.005   0.261
 2012 215    63  22.70  31.10  23.50 -99.000   6.426   0.081   6.394   1.025   0.081   0.944   0.000   0.000  432.73  173.11    0.20  172.91    0.00    0.00 -99.000 -99.000 -99.000   0.757   0.116   0.040   0.015   0.008   0.005   0.003   0.008   0.202
 2012 216    64  18.10  29.50  24.00 -99.000   5.035   0.075   5.006   1.105   0.075   1.030   0.000   0.000  437.76  174.22    0.28  173.94    0.00    0.00 -99.000 -99.000 -99.000   0.843   0.116   0.040   0.015   0.008   0.005   0.003   0.008   0.165
 2012 217    65  17.80  31.60  24.20 -99.000   5.133   0.035   5.097   5.132   0.035   5.097   0.000   0.000  442.90  179.35    0.31  179.04    0.00    0.00 -99.000 -99.000 -99.000   1.367   1.008   0.876   0.602   0.472   0.445   0.327   0.003   0.263
 2012 218    66  18.80  29.80  24.20 -99.000   5.383   0.042   5.340   5.382   0.042   5.340   0.000   0.000  448.28  184.73    0.35  184.38    0.00    0.00 -99.000 -99.000 -99.000   1.476   1.101   0.911   0.615   0.474   0.447   0.316   0.004   0.264
 2012 219    67  19.80  30.20  23.00 -99.000   5.640   0.050   5.589   5.639   0.050   5.589   0.000   0.000  453.92  190.37    0.40  189.97    0.00    0.00 -99.000 -99.000 -99.000   1.416   1.081   0.980   0.677   0.529   0.529   0.377   0.005   0.266
 2012 220    68  16.10  30.40  24.50 -99.000   4.584   0.052   4.531   4.583   0.052   4.531   0.000   0.000  458.50  194.95    0.45  194.50    0.00    0.00 -99.000 -99.000 -99.000   1.052   0.860   0.811   0.565   0.444   0.460   0.338   0.005   0.269
 2012 221    69  24.00  31.60  24.20 -99.000   6.867   0.223   6.778   6.208   0.223   5.985   0.000   0.000  465.37  201.16    0.68  200.48    0.00    0.00 -99.000 -99.000 -99.000   1.518   1.109   1.039   0.726   0.568   0.591   0.434   0.022   0.271
 2012 222    70  23.20  32.40  24.00 -99.000   6.772   0.247   6.673   6.545   0.247   6.298   0.000   0.000  472.14  207.71    0.92  206.78    0.00    0.00 -99.000 -99.000 -99.000   1.762   1.172   1.054   0.730   0.567   0.583   0.429   0.025   0.273
 2012 223    71  24.60  32.40  23.80 -99.000   7.183   0.294   7.065   6.687   0.294   6.394   0.000   0.000  479.32  214.39    1.22  213.17    0.00    0.00 -99.000 -99.000 -99.000   1.796   1.209   1.073   0.738   0.574   0.580   0.424   0.029   0.276
 2012 224    72  24.70  32.50  23.40 -99.000   7.194   0.333   7.060   6.469   0.333   6.136   0.000   0.000  486.52  220.86    1.55  219.31    0.00    0.00 -99.000 -99.000 -99.000   1.611   1.152   1.062   0.737   0.576   0.579   0.419   0.033   0.279
 2012 225    73  19.00  29.50  24.20 -99.000   5.335   0.109   5.224   5.333   0.109   5.224   0.000   0.000  491.85  226.19    1.66  224.54    0.00    0.00 -99.000 -99.000 -99.000   1.399   0.975   0.896   0.623   0.489   0.490   0.352   0.011   0.284
 2012 226    74  20.80  29.30  24.80 -99.000   5.921   0.134   5.784   5.919   0.134   5.784   0.000   0.000  497.77  232.11    1.79  230.32    0.00    0.00 -99.000 -99.000 -99.000   1.642   1.093   0.969   0.667   0.521   0.522   0.370   0.013   0.289
 2012 227    75  15.30  30.40  24.20 -99.000   4.379   0.110   4.267   4.378   0.110   4.267   0.000   0.000  502.15  236.49    1.90  234.59    0.00    0.00 -99.000 -99.000 -99.000   1.089   0.805   0.742   0.516   0.407   0.416   0.293   0.011   0.294
 2012 228    76  11.70  30.10  24.30 -99.000   3.304   0.229   3.211   1.350   0.229   1.121   0.000   0.000  505.46  237.84    2.13  235.71    0.00    0.00 -99.000 -99.000 -99.000   0.925   0.122   0.042   0.015   0.008   0.006   0.003   0.023   0.300
 2012 229    77  15.70  29.60  24.30 -99.000   4.387   0.132   4.252   4.384   0.132   4.252   0.000   0.000  509.84  242.23    2.27  239.96    0.00    0.00 -99.000 -99.000 -99.000   1.074   0.844   0.738   0.505   0.394   0.407   0.290   0.013   0.304
 2012 230    78  16.00  28.90  24.40 -99.000   4.514   0.150   4.360   4.510   0.150   4.360   0.000   0.000  514.36  246.74    2.42  244.32    0.00    0.00 -99.000 -99.000 -99.000   1.175   0.837   0.749   0.510   0.395   0.403   0.291   0.015   0.307
 2012 231    79  16.90  28.10  23.80 -99.000   4.677   0.172   4.500   4.672   0.172   4.500   0.000   0.000  519.03  251.41    2.59  248.82    0.00    0.00 -99.000 -99.000 -99.000   1.111   0.840   0.783   0.546   0.429   0.443   0.348   0.017   0.312
 2012 232    80  19.80  30.90  23.10 -99.000   5.564   0.226   5.333   5.558   0.226   5.333   0.000   0.000  524.60  256.97    2.81  254.15    0.00    0.00 -99.000 -99.000 -99.000   1.251   0.985   0.937   0.657   0.518   0.537   0.448   0.023   0.318
 2012 233    81  21.20  32.10  23.80 -99.000   6.035   0.671   5.757   1.694   0.671   1.023   0.000   0.000  530.63  258.66    3.48  255.18    0.00    0.00 -99.000 -99.000 -99.000   0.834   0.116   0.041   0.015   0.008   0.006   0.003   0.067   0.325
 2012 234    82  17.20  30.20  24.90 -99.000   4.808   0.586   4.561   1.533   0.586   0.947   0.000   0.000  535.44  260.19    4.07  256.12    0.00    0.00 -99.000 -99.000 -99.000   0.760   0.114   0.041   0.015   0.008   0.006   0.003   0.059   0.259
 2012 235    83  20.40  30.00  24.40 -99.000   5.654   0.314   5.336   5.650   0.314   5.336   0.000   0.000  541.10  265.84    4.38  261.46    0.00    0.00 -99.000 -99.000 -99.000   1.320   0.958   0.923   0.646   0.511   0.532   0.445   0.031   0.253
 2012 236    84  22.80  30.00  24.80 -99.000   6.456   0.467   6.053   6.453   0.467   5.986   0.000   0.000  547.55  272.30    4.85  267.44    0.00    0.00 -99.000 -99.000 -99.000   1.545   1.086   1.019   0.703   0.559   0.584   0.490   0.047   0.352
 2012 237    85  15.30  30.40  23.60 -99.000   4.255   0.292   3.958   4.250   0.292   3.958   0.000   0.000  551.81  276.55    5.14  271.40    0.00    0.00 -99.000 -99.000 -99.000   1.061   0.720   0.670   0.451   0.360   0.378   0.318   0.029   0.364
 2012 238    86  18.50  29.80  24.40 -99.000   5.207   0.390   4.811   5.201   0.390   4.811   0.000   0.000  557.01  281.75    5.53  276.21    0.00    0.00 -99.000 -99.000 -99.000   1.263   0.887   0.829   0.553   0.435   0.458   0.385   0.039   0.379
 2012 239    87  19.20  29.60  23.90 -99.000   5.300   0.438   4.856   5.294   0.438   4.856   0.000   0.000  562.31  287.04    5.97  281.07    0.00    0.00 -99.000 -99.000 -99.000   1.305   0.916   0.829   0.561   0.425   0.445   0.375   0.044   0.391
 2012 240    88  18.90  29.80  22.60 -99.000   5.228   0.459   4.764   5.223   0.459   4.764   0.000   0.000  567.54  292.27    6.43  285.83    0.00    0.00 -99.000 -99.000 -99.000   1.226   0.899   0.824   0.569   0.436   0.440   0.371   0.046   0.406
 2012 241    89  19.90  29.20  24.10 -99.000   5.461   1.161   4.948   2.269   1.161   1.109   0.000   0.000  573.00  294.53    7.59  286.94    0.00    0.00 -99.000 -99.000 -99.000   0.915   0.121   0.041   0.015   0.008   0.005   0.003   0.116   0.418
 2012 242    90  22.30  29.70  24.20 -99.000   6.116   0.604   5.504   6.108   0.604   5.504   0.000   0.000  579.12  300.64    8.20  292.45    0.00    0.00 -99.000 -99.000 -99.000   1.427   1.022   0.948   0.659   0.516   0.505   0.426   0.060   0.431
 2012 243    91  20.80  30.30  24.20 -99.000   5.817   0.615   5.190   5.805   0.615   5.190   0.000   0.000  584.94  306.45    8.81  297.64    0.00    0.00 -99.000 -99.000 -99.000   1.471   0.979   0.865   0.595   0.460   0.445   0.375   0.061   0.445
 2012 244    92  18.60  29.20  24.40 -99.000   5.138   0.588   4.545   5.132   0.588   4.545   0.000   0.000  590.07  311.58    9.40  302.18    0.00    0.00 -99.000 -99.000 -99.000   1.157   0.860   0.787   0.550   0.427   0.422   0.342   0.059   0.461
 2012 245    93  22.20  30.00  24.10 -99.000   6.101   1.645   5.350   2.753   1.645   1.107   0.000   0.000  596.17  314.33   11.04  303.29    0.00    0.00 -99.000 -99.000 -99.000   0.912   0.122   0.042   0.015   0.008   0.005   0.003   0.165   0.478
 2012 246    94  20.90  29.80  24.40 -99.000   5.702   0.741   4.946   5.688   0.741   4.946   0.000   0.000  601.88  320.02   11.78  308.23    0.00    0.00 -99.000 -99.000 -99.000   1.264   0.934   0.853   0.593   0.465   0.470   0.368   0.074   0.480
 2012 247    95  20.90  29.90  24.00 -99.000   5.766   0.806   4.945   5.751   0.806   4.945   0.000   0.000  607.64  325.77   12.59  313.18    0.00    0.00 -99.000 -99.000 -99.000   1.270   0.920   0.856   0.592   0.466   0.476   0.366   0.081   0.514
 2012 248    96  22.10  30.20  22.90 -99.000   5.992   1.926   5.077   3.024   1.926   1.098   0.000   0.000  613.63  328.79   14.52  314.28    0.00    0.00 -99.000 -99.000 -99.000   0.906   0.119   0.041   0.015   0.008   0.006   0.003   0.193   0.534
 2012 249    97  15.80  30.70  23.40 -99.000   4.290   1.468   3.585   2.565   1.468   1.098   0.000   0.000  617.92  331.36   15.98  315.38    0.00    0.00 -99.000 -99.000 -99.000   0.908   0.117   0.041   0.015   0.008   0.006   0.003   0.147   0.527
 2012 250    98  17.10  30.70  24.60 -99.000   4.700   0.808   3.884   4.692   0.808   3.884   0.000   0.000  622.62  336.05   16.79  319.26    0.00    0.00 -99.000 -99.000 -99.000   1.051   0.704   0.658   0.453   0.358   0.377   0.284   0.081   0.579
 2012 251    99  24.90  31.00  24.70 -99.000   6.914   1.261   5.643   6.905   1.261   5.643   0.000   0.000  629.54  342.96   18.05  324.90    0.00    0.00 -99.000 -99.000 -99.000   1.604   1.029   0.942   0.640   0.500   0.529   0.399   0.126   0.597
 2012 252   100  24.50  30.50  24.80 -99.000   6.724   1.309   5.392   6.701   1.309   5.392   0.000   0.000  636.26  349.66   19.36  330.29    0.00    0.00 -99.000 -99.000 -99.000   1.487   1.040   0.913   0.617   0.472   0.491   0.371   0.131   0.616
 2012 253   101  12.80  28.80  24.90 -99.000   3.452   0.720   2.718   3.438   0.720   2.717   0.000   0.000  639.71  353.09   20.08  333.01    0.00    0.00 -99.000 -99.000 -99.000   0.689   0.522   0.473   0.327   0.252   0.261   0.194   0.072   0.642
 2012 254   102  22.20  30.40  23.30 -99.000   5.972   1.302   4.646   5.948   1.302   4.646   0.000   0.000  645.69  359.04   21.38  337.66    0.00    0.00 -99.000 -99.000 -99.000   1.216   0.919   0.793   0.542   0.422   0.437   0.318   0.130   0.674
 2012 255   103  19.30  30.80  23.10 -99.000   5.228   1.223   3.993   5.216   1.223   3.993   0.000   0.000  650.91  364.26   22.61  341.65    0.00    0.00 -99.000 -99.000 -99.000   1.014   0.769   0.699   0.479   0.371   0.381   0.280   0.122   0.699
 2012 256   104  21.40  29.00  24.50 -99.000   5.692   1.402   4.274   5.675   1.402   4.273   0.000   0.000  656.61  369.93   24.01  345.92    0.00    0.00 -99.000 -99.000 -99.000   1.038   0.797   0.751   0.527   0.414   0.426   0.319   0.140   0.735
 2012 257   105  23.60  31.40  24.30 -99.000   6.397   1.658   4.713   6.371   1.658   4.713   0.000   0.000  663.00  376.30   25.67  350.64    0.00    0.00 -99.000 -99.000 -99.000   1.236   0.863   0.803   0.561   0.442   0.459   0.350   0.166   0.766
 2012 258   106  21.10  30.80  23.20 -99.000   5.671   1.561   4.093   5.654   1.561   4.092   0.000   0.000  668.67  381.96   27.23  354.73    0.00    0.00 -99.000 -99.000 -99.000   1.144   0.764   0.678   0.468   0.366   0.380   0.293   0.156   0.800
 2012 259   107  21.90  29.60  24.40 -99.000   5.847   1.693   4.133   5.825   1.693   4.132   0.000   0.000  674.52  387.78   28.92  358.86    0.00    0.00 -99.000 -99.000 -99.000   1.065   0.777   0.711   0.491   0.383   0.396   0.309   0.169   0.838
 2012 260   108  20.70  27.60  23.90 -99.000   5.341   1.630   3.691   5.320   1.630   3.690   0.000   0.000  679.86  393.10   30.55  362.55    0.00    0.00 -99.000 -99.000 -99.000   0.955   0.719   0.631   0.432   0.335   0.345   0.272   0.163   0.875
 2012 261   109  18.20  30.40  23.20 -99.000   4.833   1.559   3.263   4.821   1.559   3.262   0.000   0.000  684.69  397.92   32.11  365.81    0.00    0.00 -99.000 -99.000 -99.000   0.877   0.619   0.554   0.378   0.293   0.299   0.242   0.156   0.914
 2012 262   110  11.90  29.90  23.90 -99.000   3.150   1.037   2.103   3.139   1.037   2.102   0.000   0.000  687.84  401.06   33.15  367.92    0.00    0.00 -99.000 -99.000 -99.000   0.552   0.386   0.356   0.249   0.195   0.200   0.165   0.104   0.954
 2012 263   111  22.80  32.80  24.20 -99.000   6.221   2.093   4.115   6.207   2.093   4.114   0.000   0.000  694.06  407.27   35.24  372.03    0.00    0.00 -99.000 -99.000 -99.000   1.019   0.753   0.709   0.496   0.391   0.406   0.339   0.209   0.991
 2012 264   112  22.90  31.20  24.40 -99.000   6.110   3.574   3.990   4.659   3.574   1.084   0.000   0.000  700.17  411.93   38.81  373.11    0.00    0.00 -99.000 -99.000 -99.000   0.893   0.118   0.042   0.015   0.008   0.006   0.003   0.357   1.018
 2012 265   113  21.80  29.40  25.00 -99.000   5.702   2.009   3.674   5.681   2.009   3.672   0.000   0.000  705.88  417.61   40.82  376.79    0.00    0.00 -99.000 -99.000 -99.000   0.924   0.681   0.628   0.436   0.343   0.359   0.300   0.201   0.994
 2012 266   114  17.00  29.30  23.80 -99.000   4.451   1.610   2.830   4.438   1.610   2.828   0.000   0.000  710.33  422.05   42.43  379.61    0.00    0.00 -99.000 -99.000 -99.000   0.726   0.522   0.483   0.333   0.262   0.274   0.229   0.161   1.105
 2012 267   115  19.80  29.20  24.00 -99.000   5.148   3.149   3.235   4.308   3.149   1.159   0.000   0.000  715.47  426.35   45.58  380.77    0.00    0.00 -99.000 -99.000 -99.000   0.964   0.122   0.042   0.015   0.008   0.006   0.003   0.315   1.149
 2012 268   116  23.80  30.50  24.00 -99.000   6.243   3.862   3.872   4.889   3.862   1.027   0.000   0.000  721.72  431.24   49.45  381.80    0.00    0.00 -99.000 -99.000 -99.000   0.838   0.117   0.041   0.015   0.008   0.006   0.003   0.386   1.186
 2012 269   117  14.30  30.70  23.20 -99.000   3.720   2.338   2.274   3.358   2.338   1.020   0.000   0.000  725.44  434.60   51.78  382.82    0.00    0.00 -99.000 -99.000 -99.000   0.838   0.111   0.040   0.015   0.007   0.005   0.003   0.234   1.107
 2012 270   118  24.00  30.60  24.50 -99.000   6.324   3.961   3.877   5.016   3.961   1.055   0.000   0.000  731.76  439.62   55.74  383.87    0.00    0.00 -99.000 -99.000 -99.000   0.877   0.108   0.039   0.014   0.007   0.005   0.003   0.396   1.277
 2012 271   119  23.70  30.90  23.40 -99.000   6.196   3.865   3.811   4.787   3.865   0.922   0.000   0.000  737.96  444.40   59.61  384.80    0.00    0.00 -99.000 -99.000 -99.000   0.752   0.102   0.039   0.014   0.007   0.005   0.003   0.386   1.220
 2012 272   120  24.50  31.00  23.40 -99.000   6.397   3.965   3.947   4.791   3.965   0.826   0.000   0.000  744.36  449.20   63.57  385.62    0.00    0.00 -99.000 -99.000 -99.000   0.662   0.097   0.038   0.014   0.007   0.005   0.003   0.397   1.068
 2012 273   121  23.40  30.90  23.70 -99.000   6.106   3.790   3.779   4.809   3.790   1.019   0.000   0.000  750.46  454.00   67.36  386.64    0.00    0.00 -99.000 -99.000 -99.000   0.855   0.098   0.036   0.013   0.007   0.005   0.003   0.379   1.044
 2012 274   122  18.00  31.40  24.20 -99.000   4.798   1.811   2.978   4.782   1.811   2.971   0.000   0.000  755.26  458.79   69.17  389.61    0.00    0.00 -99.000 -99.000 -99.000   0.885   0.520   0.452   0.317   0.253   0.296   0.249   0.181   1.453
 2012 275   123  18.00  30.00  24.40 -99.000   4.749   1.784   2.957   4.732   1.784   2.949   0.000   0.000  760.01  463.52   70.96  392.56    0.00    0.00 -99.000 -99.000 -99.000   0.864   0.557   0.440   0.307   0.246   0.290   0.245   0.178   1.446
 2012 276   124  20.90  30.30  24.10 -99.000   5.503   2.060   3.437   5.487   2.060   3.426   0.000   0.000  765.51  469.01   73.02  395.99    0.00    0.00 -99.000 -99.000 -99.000   0.988   0.666   0.518   0.352   0.282   0.336   0.284   0.206   1.348
 2012 277   125  16.50  33.70  22.60 -99.000   4.459   1.660   2.794   4.444   1.660   2.784   0.000   0.000  769.97  473.45   74.68  398.77    0.00    0.00 -99.000 -99.000 -99.000   0.793   0.547   0.428   0.284   0.227   0.274   0.232   0.166   1.302
 2012 278   126  13.80  32.00  21.50 -99.000   3.630   1.348   2.282   3.620   1.348   2.273   0.000   0.000  773.60  477.07   76.03  401.04    0.00    0.00 -99.000 -99.000 -99.000   0.624   0.453   0.354   0.234   0.188   0.227   0.192   0.135   1.243
 2012 279   127  22.30  32.30  22.60 -99.000   5.923   2.189   3.735   5.907   2.189   3.718   0.000   0.000  779.52  482.98   78.22  404.76    0.00    0.00 -99.000 -99.000 -99.000   1.072   0.739   0.569   0.371   0.298   0.362   0.307   0.219   1.139
 2012 280   128  20.00  30.00  24.90 -99.000   5.289   1.939   3.346   5.269   1.939   3.330   0.000   0.000  784.81  488.25   80.15  408.09    0.00    0.00 -99.000 -99.000 -99.000   1.018   0.655   0.509   0.317   0.255   0.311   0.264   0.194   1.145
 2012 281   129  19.00  31.20  23.50 -99.000   5.050   1.841   3.205   5.029   1.841   3.188   0.000   0.000  789.86  493.27   82.00  411.28    0.00    0.00 -99.000 -99.000 -99.000   0.902   0.643   0.518   0.310   0.249   0.306   0.260   0.184   1.187
 2012 282   130  17.60  29.50  23.50 -99.000   4.568   1.656   2.908   4.547   1.656   2.891   0.000   0.000  794.43  497.82   83.65  414.17    0.00    0.00 -99.000 -99.000 -99.000   0.807   0.580   0.475   0.282   0.228   0.280   0.238   0.166   1.175
 2012 283   131  22.80  30.10  23.50 -99.000   5.964   2.157   3.809   5.943   2.157   3.785   0.000   0.000  800.39  503.76   85.81  417.95    0.00    0.00 -99.000 -99.000 -99.000   1.051   0.759   0.618   0.372   0.301   0.370   0.315   0.216   1.151
 2012 284   132  20.50  29.90  23.20 -99.000   5.321   3.188   3.409   4.202   3.188   1.014   0.000   0.000  805.72  507.97   89.00  418.97    0.00    0.00 -99.000 -99.000 -99.000   0.846   0.110   0.033   0.011   0.006   0.005   0.003   0.319   0.971
 2012 285   133  22.00  30.80  23.40 -99.000   5.752   3.436   3.697   4.310   3.436   0.873   0.000   0.000  811.47  512.28   92.43  419.84    0.00    0.00 -99.000 -99.000 -99.000   0.713   0.104   0.033   0.011   0.006   0.005   0.003   0.344   0.758
 2012 286   134  20.80  30.80  23.70 -99.000   5.437   3.229   3.506   4.009   3.229   0.780   0.000   0.000  816.90  516.28   95.66  420.62    0.00    0.00 -99.000 -99.000 -99.000   0.630   0.094   0.032   0.011   0.006   0.005   0.003   0.323   0.460
 2012 287   135  23.30  32.10  22.40 -99.000   6.107   3.616   3.951   4.197   3.214   0.983   0.000   0.000  823.01  520.48   98.88  421.60    0.00    0.00 -99.000 -99.000 -99.000   0.835   0.094   0.031   0.010   0.005   0.005   0.003   0.321   0.321
 2012 288   136  21.50  33.10  22.40 -99.000   5.772   2.038   3.747   5.751   2.038   3.713   0.000   0.000  828.78  526.23  100.91  425.32    0.00    0.00 -99.000 -99.000 -99.000   1.132   0.658   0.565   0.374   0.301   0.369   0.313   0.204   0.539
 2012 289   137  21.60  30.50  23.30 -99.000   5.645   1.981   3.677   5.622   1.981   3.641   0.000   0.000  834.43  531.85  102.90  428.96    0.00    0.00 -99.000 -99.000 -99.000   1.156   0.672   0.528   0.353   0.285   0.350   0.297   0.198   0.431
 2012 290   138  18.60  30.20  23.00 -99.000   4.875   1.703   3.186   4.856   1.703   3.153   0.000   0.000  839.30  536.71  104.60  432.11    0.00    0.00 -99.000 -99.000 -99.000   0.974   0.632   0.446   0.302   0.244   0.300   0.255   0.170   0.664
 2012 291   139   9.00  31.60  23.50 -99.000   2.388   1.344   1.566   2.381   1.344   1.036   0.000   0.000  841.69  539.09  105.94  433.15    0.00    0.00 -99.000 -99.000 -99.000   0.882   0.104   0.028   0.010   0.005   0.004   0.003   0.134   0.649
 2012 292   140  22.60  33.00  22.50 -99.000   6.022   3.498   3.963   4.426   3.498   0.928   0.000   0.000  847.71  543.52  109.44  434.08    0.00    0.00 -99.000 -99.000 -99.000   0.779   0.100   0.028   0.010   0.005   0.004   0.003   0.350   0.498
 2012 293   141  22.10  33.30  22.30 -99.000   5.879   3.404   3.883   2.518   1.732   0.786   0.000   0.000  853.59  546.04  111.17  434.86    0.00    0.00 -99.000 -99.000 -99.000   0.648   0.088   0.027   0.010   0.005   0.004   0.003   0.173   0.173
 2012 294   142  14.90  31.90  24.00 -99.000   3.948   2.248   2.640   2.038   1.328   0.709   0.000   0.000  857.54  548.07  112.50  435.57    0.00    0.00 -99.000 -99.000 -99.000   0.576   0.084   0.027   0.010   0.005   0.004   0.003   0.133   0.133
 2012 295   143  20.90  31.60  22.00 -99.000   5.437   3.056   3.673   1.771   1.120   0.650   0.000   0.000  862.98  549.85  113.62  436.22    0.00    0.00 -99.000 -99.000 -99.000   0.520   0.082   0.027   0.010   0.005   0.004   0.003   0.112   0.114
 2012 296   144  18.10  29.60  21.60 -99.000   4.591   2.547   3.130   1.785   1.002   0.782   0.000   0.000  867.57  551.63  114.62  437.00    0.00    0.00 -99.000 -99.000 -99.000   0.654   0.080   0.027   0.010   0.005   0.004   0.003   0.100   0.100
 2012 297   145  19.10  31.70  23.50 -99.000   5.074   2.762   3.508   3.191   2.287   0.903   0.000   0.001  872.64  554.82  116.91  437.91    0.00    0.00 -99.000 -99.000 -99.000   0.776   0.078   0.027   0.010   0.005   0.004   0.003   0.229   0.229
 2012 298   146   9.40  29.90  24.90 -99.000   2.460   1.333   1.707   1.585   0.879   0.705   0.000   0.001  875.10  556.41  117.79  438.61    0.00    0.00 -99.000 -99.000 -99.000   0.580   0.077   0.026   0.009   0.005   0.004   0.003   0.088   0.088
 2012 299   147  18.00  31.20  23.80 -99.000   4.731   2.530   3.308   1.478   0.794   0.683   0.000   0.001  879.83  557.88  118.58  439.29    0.00    0.01 -99.000 -99.000 -99.000   0.560   0.076   0.026   0.009   0.005   0.004   0.003   0.079   0.079
 2012 300   148  20.30  30.70  23.60 -99.000   5.305   2.797   3.741   1.390   0.724   0.665   0.000   0.001  885.14  559.27  119.31  439.96    0.00    0.01 -99.000 -99.000 -99.000   0.543   0.075   0.026   0.009   0.005   0.004   0.003   0.072   0.075
 2012 301   149  15.40  30.30  23.10 -99.000   3.988   2.076   2.837   1.433   0.677   0.755   0.000   0.001  889.13  560.71  119.99  440.71    0.00    0.01 -99.000 -99.000 -99.000   0.635   0.074   0.026   0.009   0.005   0.004   0.003   0.068   0.068
 2012 302   150  17.20  31.00  21.80 -99.000   4.483   2.276   3.232   2.088   1.118   0.969   0.000   0.001  893.61  562.80  121.10  441.68    0.00    0.01 -99.000 -99.000 -99.000   0.849   0.074   0.026   0.009   0.005   0.004   0.003   0.112   0.112
 2012 303   151   9.40  29.50  22.30 -99.000   2.432   1.210   1.771   2.190   1.210   0.979   0.000   0.001  896.04  564.99  122.31  442.66    0.00    0.01 -99.000 -99.000 -99.000   0.859   0.073   0.026   0.009   0.005   0.004   0.002   0.121   0.252
 2012 304   152  16.90  28.80  22.00 -99.000   4.307   2.133   3.146   1.751   0.933   0.817   0.000   0.001  900.35  566.74  123.25  443.48    0.00    0.01 -99.000 -99.000 -99.000   0.698   0.073   0.026   0.009   0.005   0.004   0.002   0.093   0.093
 2012 305   153  20.80  33.40  21.00 -99.000   5.513   2.678   4.069   1.348   0.625   0.721   0.000   0.001  905.86  568.08  123.87  444.20    0.00    0.01 -99.000 -99.000 -99.000   0.603   0.072   0.025   0.009   0.005   0.004   0.002   0.063   0.063
 2012 306   154  21.60  32.80  21.10 -99.000   5.686   2.690   4.254   1.193   0.533   0.659   0.000   0.001  911.55  569.28  124.40  444.86    0.00    0.01 -99.000 -99.000 -99.000   0.542   0.071   0.025   0.009   0.005   0.004   0.002   0.053   0.055
 2012 307   155  21.40  32.50  23.10 -99.000   5.689   2.611   4.313   1.117   0.506   0.609   0.000   0.001  917.24  570.39  124.91  445.47    0.00    0.02 -99.000 -99.000 -99.000   0.493   0.071   0.025   0.009   0.005   0.004   0.002   0.051   0.051
 2012 308   156  21.10  33.40  22.70 -99.000   5.640   2.518   4.331   1.246   0.482   0.762   0.000   0.001  922.88  571.64  125.39  446.23    0.00    0.02 -99.000 -99.000 -99.000   0.647   0.070   0.025   0.009   0.005   0.004   0.002   0.048   0.048
 2012 309   157  20.00  32.90  22.90 -99.000   5.393   2.338   4.192   2.985   2.080   0.902   0.000   0.003  928.27  574.62  127.47  447.13    0.00    0.02 -99.000 -99.000 -99.000   0.787   0.069   0.025   0.009   0.005   0.004   0.002   0.208   0.208
 2012 310   158  21.40  34.60  23.80 -99.000   5.859   2.522   4.568   1.157   0.473   0.682   0.000   0.003  934.13  575.78  127.95  447.81    0.00    0.02 -99.000 -99.000 -99.000   0.568   0.069   0.025   0.009   0.005   0.004   0.002   0.047   0.047
 2012 311   159  20.70  33.30  23.60 -99.000   5.577   2.320   4.397   1.052   0.423   0.626   0.000   0.003  939.71  576.83  128.37  448.44    0.00    0.03 -99.000 -99.000 -99.000   0.513   0.068   0.025   0.009   0.005   0.004   0.002   0.042   0.044
 2012 312   160  20.60  33.50  20.70 -99.000   5.443   2.198   4.339   0.987   0.406   0.579   0.000   0.003  945.15  577.82  128.77  449.02    0.00    0.03 -99.000 -99.000 -99.000   0.467   0.067   0.025   0.009   0.005   0.004   0.002   0.041   0.041
 2012 313   161  21.70  33.00  21.60 -99.000   5.732   2.237   4.616   0.928   0.389   0.535   0.000   0.003  950.88  578.75  129.16  449.55    0.00    0.03 -99.000 -99.000 -99.000   0.424   0.067   0.025   0.009   0.005   0.004   0.002   0.039   0.039
 2012 314   162  20.80  32.70  20.10 -99.000   5.411   2.046   4.402   0.873   0.374   0.496   0.000   0.003  956.29  579.62  129.54  450.05    0.00    0.03 -99.000 -99.000 -99.000   0.386   0.066   0.024   0.009   0.005   0.004   0.002   0.037   0.037
 2012 315   163  12.40  26.30  19.50 -99.000   2.989   1.088   2.454   0.823   0.360   0.460   0.000   0.003  959.28  580.45  129.90  450.51    0.00    0.04 -99.000 -99.000 -99.000   0.351   0.066   0.024   0.009   0.005   0.004   0.002   0.036   0.036
 2012 316   164  13.90  27.10  18.60 -99.000   3.353   1.191   2.773   0.756   0.326   0.428   0.000   0.003  962.63  581.20  130.22  450.94    0.00    0.04 -99.000 -99.000 -99.000   0.319   0.065   0.024   0.009   0.005   0.004   0.002   0.033   0.035
 2012 317   165  13.80  28.80  20.10 -99.000   3.425   1.182   2.854   0.715   0.314   0.398   0.000   0.003  966.06  581.92  130.54  451.34    0.00    0.04 -99.000 -99.000 -99.000   0.290   0.065   0.024   0.009   0.005   0.004   0.002   0.031   0.031
 2012 318   166  12.70  30.00  20.80 -99.000   3.205   1.074   2.690   0.678   0.304   0.371   0.000   0.003  969.26  582.59  130.84  451.71    0.00    0.04 -99.000 -99.000 -99.000   0.263   0.064   0.024   0.009   0.005   0.004   0.002   0.030   0.030
 2012 319   167  20.30  33.20  21.80 -99.000   5.329   1.739   4.503   0.644   0.294   0.347   0.000   0.002  974.59  583.24  131.14  452.06    0.00    0.05 -99.000 -99.000 -99.000   0.239   0.064   0.024   0.009   0.005   0.004   0.002   0.029   0.029
 2012 320   168  21.00  33.20  22.50 -99.000   5.530   1.742   4.709   0.637   0.285   0.349   0.000   0.002  980.12  583.88  131.42  452.40    0.00    0.05 -99.000 -99.000 -99.000   0.242   0.064   0.024   0.009   0.005   0.004   0.002   0.029   0.029
 2012 321   169  19.80  32.70  21.90 -99.000   5.167   1.572   4.432   0.685   0.277   0.399   0.000   0.009  985.29  584.56  131.70  452.80    0.00    0.06 -99.000 -99.000 -99.000   0.293   0.063   0.024   0.009   0.005   0.004   0.002   0.028   0.028
 2012 322   170  18.10  32.10  22.40 -99.000   4.719   1.384   4.075   0.701   0.268   0.421   0.000   0.012  990.01  585.26  131.97  453.22    0.00    0.07 -99.000 -99.000 -99.000   0.315   0.063   0.024   0.009   0.005   0.004   0.002   0.027   0.027
 2012 323   171  20.40  33.90  21.40 -99.000   5.367   1.574   4.635   0.702   0.261   0.431   0.000   0.011  995.38  585.96  132.23  453.65    0.00    0.08 -99.000 -99.000 -99.000   0.325   0.063   0.024   0.009   0.005   0.004   0.002   0.026   0.026
 2012 324   172  19.30  34.10  21.00 -99.000   5.084   1.489   4.391   0.707   0.253   0.440   0.000   0.015   1000.    587.    132.    454.      0.      0. -99.000 -99.000 -99.000   0.334   0.062   0.024   0.009   0.005   0.004   0.002   0.025   0.025
