*SIMULATION OVERVIEW FILE

*DSSAT Cropping System Model Ver. 4.8.2.000 -release  DEC 29, 2025 16:23:24

*RUN   1        : F1 NE 4                   RICER048 CRDA1201    1
 MODEL          : RICER048 - Rice
 EXPERIMENT     : CRDA1201 WH ESSAI VARIETE DAROU PAKA 2012
 DATA PATH      :
 TREATMENT  1   : F1 NE 4                   RICER048


 CROP           : Rice             CULTIVAR : NERICA 4         ECOTYPE :IB0001
 STARTING DATE  : JUN  1 2012
 PLANTING DATE  : JUL 24 2012      PLANTS/m2 :    60.0    ROW SPACING :  25.cm
 WEATHER        : DARO   2012
 SOIL           : CR06002014     TEXTURE : S     -
 SOIL INIT COND : DEPTH:100cm EXTR. H2O:104.5mm  NO3:  0.0kg/ha  NH4:  0.0kg/ha
 WATER BALANCE  : RAINFED
 IRRIGATION     : NOT IRRIGATED
 NITROGEN BAL.  : NOT SIMULATED ; NO N-STRESS
 N-FERTILIZER   :
 RESIDUE/MANURE :
 ENVIRONM. OPT. : DAYL=    0.00  SRAD=    0.00  TMAX=    0.00  TMIN=    0.00
                  RAIN=    0.00  CO2 =    0.00  DEW =    0.00  WIND=    0.00
 SIMULATION OPT : WATER   :Y  NITROGEN:N  N-FIX:N  PHOSPH :N  PESTS  :N
                  PHOTO   :C  ET      :R  INFIL:S  HYDROL :R  SOM    :P
                  CO2 394ppm  NSWIT   :1  EVAP :S  SOIL   :2  STEMP  :D
 MANAGEMENT OPT : PLANTING:R  IRRIG   :N  FERT :R  RESIDUE:N  HARVEST:A
                  WEATHER :M  TILLAGE :Y

*SUMMARY OF SOIL AND GENETIC INPUT PARAMETERS

   SOIL LOWER UPPER   SAT  EXTR  INIT   ROOT   BULK     pH    NO3    NH4    ORG
  DEPTH LIMIT LIMIT    SW    SW    SW   DIST   DENS                          C
   cm   cm3/cm3    cm3/cm3    cm3/cm3         g/cm3         ugN/g  ugN/g     %
-------------------------------------------------------------------------------
  0-  5 0.160 0.260 0.410 0.100 0.260   1.00   1.59   6.20   0.00   0.00   0.80
  5- 15 0.160 0.260 0.410 0.100 0.260   1.00   1.59   6.20   0.00   0.00   0.80
 15- 30 0.180 0.290 0.410 0.110 0.290   1.00   1.59   6.00   0.00   0.00   0.50
 30- 45 0.180 0.290 0.410 0.110 0.290   1.00   1.59   6.00   0.00   0.00   0.50
 45- 60 0.180 0.290 0.410 0.110 0.290   1.00   1.59   6.00   0.00   0.00   0.50
 60- 80 0.180 0.280 0.400 0.100 0.280   0.30   1.61   6.00   0.00   0.00   0.30
 80-100 0.180 0.280 0.400 0.100 0.280   0.30   1.61   6.00   0.00   0.00   0.30

TOT-100  17.7  28.1  40.6  10.4  28.1  <--cm   -  kg/ha-->    0.0    0.0      0
SOIL ALBEDO    : 0.13      EVAPORATION LIMIT : 6.00         MIN. FACTOR  : 1.00
RUNOFF CURVE # :76.00      DRAINAGE RATE     : 0.60         FERT. FACTOR : 0.60

 Rice             CULTIVAR: AR0002-NERICA 4           ECOTYPE: IB0001
 P1     : 312.5  P2R    :  78.8  P5     : 850.0  P2O    :  12.0
 G1     :  68.8  G2     :0.0190  G3     :  1.30  THOT   :  34.0  TCLDP  :  15.0  TCLDF  :  17.5


*SIMULATED CROP AND SOIL STATUS AT MAIN DEVELOPMENT STAGES

 RUN NO.     1     F1 NE 4                 

        CROP GROWTH     BIOMASS         LEAF   CROP N     STRESS      STRESS                                           
   DATE  AGE STAGE        kg/ha    LAI   NUM  kg/ha  %   H2O  Nitr Phos1 Phos2  RSTG                                   
 ------  --- ----------   -----  -----  ----  ---  ---  ----  ----  ----  ----  ----                                   
  1 JUN    0 Start Sim        0   0.00   0.0    0  0.0  0.00  0.00  0.00  0.00     7
 24 JUL    0 Sowing           0   0.00   0.0    0  0.0  0.00  0.00  0.00  0.00     8
 26 JUL    2 Germinate        0   0.00   0.0    0  0.0  0.00  0.00  0.00  0.00     9
 28 JUL    4 Emergence        2   0.00   1.0    0  0.0  0.00  0.00  0.00  0.00     1
 14 AUG   21 End Juveni      44   0.07   6.0    0  0.0  0.00  0.00  0.00  0.00     2
 26 AUG   33 Pan Init       223   0.23   8.0    0  0.0  0.00  0.00  0.00  0.00     3
 25 SEP   63 Heading       2034   0.99  13.0    0  0.0  0.00  0.00  0.00  0.00     4
  2 OCT   70 Beg Gr Fil    2675   0.96  13.0    0  0.0  0.00  0.00  0.00  0.00     5
 16 NOV  115 End Mn Fil    4399   0.35  13.0    0  0.0  0.49  0.00  0.00  0.00     5
 17 NOV  116 End Ti Fil    4399   0.35  13.0    0  0.0  0.87  0.00  0.00  0.00     6
 18 NOV  117 Maturity      4399   0.35  13.0    0  0.0  0.89  0.00  0.00  0.00    20
 18 NOV  117 Harvest       4399   0.35  13.0    0  0.0  0.00  0.00  0.00  0.00    20

     Conditions not met during defined window for harvesting                       
     between DAY 2012 323 and DAY 2001   1                                         



*MAIN GROWTH AND DEVELOPMENT VARIABLES

@     VARIABLE                                         SIMULATED     MEASURED
      --------                                         ---------     --------
      Panicle Initiation day (dap)                            33          -99
      Anthesis day (dap)                                      63          -99
      Physiological maturity day (dap)                       117          -99
      Yield at harvest maturity (kg [dm]/ha)                1165          -99
      Unit wt at maturity (g [dm]/unit)                   0.0190          -99
      Number at maturity (no/m2)                            6133          -99
      Pod or panicle number (no/m2)                       270.21          -99
      Leaf area index, maximum                              1.00          -99
      Tops weight at anthesis (kg [dm]/ha)                  1963          -99
      Tops N at anthesis (kg/ha)                               0          -99
      Tops weight at maturity (kg [dm]/ha)                  4399          -99
      By-product produced (stalk) at maturity (kg[dm]/ha    3234          -99
      Harvest index at maturity                            0.265          -99
      Leaf number per stem at maturity                        13          -99
      Grain N at maturity (kg/ha)                              0          -99
      Tops N at maturity (kg/ha)                               0          -99
      Stem N at maturity (kg/ha)                               0          -99
      Grain N at maturity (%)                               0.00          -99
      Emergence day (dap)                                      4          -99


*ENVIRONMENTAL AND STRESS FACTORS

 |-----Development Phase------|--------------------------------------Environment--------------------------------------|-----------------Stress-----------------|
                              |---------------Average--------------|-----Cumulative-----|--------Count of days--------|          (0=Min, 1=Max Stress)         |
                         Time  Temp  Temp  Temp Solar Photop                Evapo    Pot TMIN TMIN TMAX TMAX TMAX RAIN|----Water----|---Nitrogen--|-Phosphorus-|
                         Span   Max   Min  Mean   Rad  [day]    CO2   Rain  Trans     ET   <    <    >    >    >    >   Photo         Photo         Photo
                         days     C     C     C MJ/m2     hr    ppm     mm     mm    mm   0 C  2 C 30 C 32 C 34 C  0mm  synth Growth  synth Growth  synth Growth
----------------------------------------------------------------------------------------------------------------------------------------------------------------
 Emergence-End Juvenile    17  30.7  24.1  27.4  19.5  12.00  394.1   94.5   75.3   94.6    0    0   11    3    0   11  0.000  0.000  0.000  0.000  0.000  0.000
 End Juvenil-Panicl Init   12  30.0  24.2  27.1  17.6  12.00  394.3   44.5   49.6   59.2    0    0    6    1    0    6  0.000  0.000  0.000  0.000  0.000  0.000
 Panicl Init-End Lf Grow   30  30.1  24.0  27.0  20.3  12.00  394.4  158.6  149.5  164.7    0    0   14    1    0   18  0.000  0.000  0.000  0.000  0.000  0.000
 End Lf Grth-Beg Grn Fil    7  30.8  23.8  27.3  20.8  12.00  394.5   17.8   32.3   38.3    0    0    6    0    0    4  0.000  0.000  0.000  0.000  0.000  0.000
 Grain Filling Phase       46  31.4  22.5  26.9  18.7  12.00  394.7   55.8  121.0  225.3    0    0   35   19    1   17  0.405  0.482  0.000  0.000  0.000  0.000
   
 Planting to Harvest      117  30.8  23.4  27.1  19.3  12.00  394.5  371.2  431.7  610.3    0    0   77   28    1   56  0.166  0.197  0.000  0.000  0.000  0.000
----------------------------------------------------------------------------------------------------------------------------------------------------------------


*Resource Productivity
 Growing season length: 117 days 

 Precipitation during growing season       371.2 mm[rain]
   Dry Matter Productivity                  1.19 kg[DM]/m3[rain]          =   11.9 kg[DM]/ha per mm[rain]
   Yield Productivity                       0.31 kg[grain yield]/m3[rain] =    3.1 kg[yield]/ha per mm[rain]

 Evapotranspiration during growing season  431.7 mm[ET]
   Dry Matter Productivity                  1.02 kg[DM]/m3[ET]            =   10.2 kg[DM]/ha per mm[ET]
   Yield Productivity                       0.27 kg[grain yield]/m3[ET]   =    2.7 kg[yield]/ha per mm[ET]

 Transpiration during growing season       132.5 mm[EP]
   Dry Matter Productivity                  3.32 kg[DM]/m3[EP]            =   33.2 kg[DM]/ha per mm[EP]
   Yield Productivity                       0.88 kg[grain yield]/m3[EP]   =    8.8 kg[yield]/ha per mm[EP]

--------------------------------------------------------------------------------------------------------------

                      Rice YIELD :     1165 kg/ha    [Dry weight] 

**************************************************************************************************************
