*GROWTH ASPECTS OUTPUT FILE

*DSSAT Cropping System Model Ver. 4.8.2.000 -release  DEC 29, 2025 16:23:24

*RUN   1        : F1 NE 4                   RICER048 CRDA1201    1
 MODEL          : RICER048 - Rice
 EXPERIMENT     : CRDA1201 WH ESSAI VARIETE DAROU PAKA 2012
 DATA PATH      :
 TREATMENT  1   : F1 NE 4                   RICER048
  
!YR        Days  Days              Leaf  <--------- Dry Weight -----------> Grain Kernl              <------ Stress (0-1) ------>   Leaf  Shell  Spec  <-Canopy->  Root  <-- Root Length Density ---><Senesced Mat>   Phot  
!  and    after after  Leaf  Grow  Area  <------------ kg/Ha ------------->   per  wght  Harv Tillr  <--- Water ---->                Nit   -ing  Leaf  Hght Brdth Depth  <---- cm3/cm3 of soil -----> <--(kg/ha)-->  Therm  
!     DOY start plant   Num Stage Index  Leaf  Stem Grain  Root Panic  Crop    m2    mg  Indx   No.  Phot  Grow  Excs  Nitr Potas     %      %   Area    m     m     m    0-5  5-15 15-30 30-4545-100   Surf   Soil   Days  
@YEAR DOY   DAS   DAP  L#SD  GSTD  LAID  LWAD  SWAD  GWAD  RWAD  EWAD  CWAD  G#AD  GWGD  HIAD  T#AD  WSPD  WSGD  EWSD  NSTD  KSTD   LN%D   SH%D  SLAD  CHTD  CWID  RDPD  RL1D  RL2D  RL3D  RL4D  RL5D  SNW0C  SNW1C   DTTC  
 2012 206    54     0   0.0     0  0.00     1     1     0     1     0     1     0   0.0 0.000    60 0.000 0.000 0.000 0.000 0.000   0.00   0.00   0.0  0.00  0.00  0.02  0.00  0.00  0.00  0.00  0.00      0      0     19
 2012 207    55     1   0.0     0  0.00     1     1     0     1     0     1     0   0.0 0.000    60 0.000 0.000 0.000 0.000 0.000   0.00   0.00   0.0  0.00  0.00  0.02  0.00  0.00  0.00  0.00  0.00      0      0     38
 2012 208    56     2   0.0     0  0.00     1     1     0     1     0     1     0   0.0 0.000    60 0.000 0.000 0.000 0.000 0.000   0.00   0.00   0.0  0.00  0.00  0.02  0.00  0.00  0.00  0.00  0.00      0      0     57
 2012 209    57     3   0.0     0  0.00     1     1     0     1     0     1     0   0.0 0.000    60 0.000 0.000 0.000 0.000 0.000   0.00   0.00   0.0  0.00  0.00  0.05  0.00  0.00  0.00  0.00  0.00      0      0     76
 2012 210    58     4   1.0     1  0.00     2     1     0     1     0     2     0   0.0 0.000    60 0.000 0.000 0.000 0.000 0.000   0.00   0.00 298.6  0.00  0.00  0.07  0.75  0.50  0.00  0.00  0.00      0      0     94
 2012 211    59     5   1.0     1  0.01     3     1     0     1     0     3     0   0.0 0.000    60 0.000 0.000 0.000 0.000 0.000   0.00   0.00 253.9  0.00  0.00  0.07  0.75  0.50  0.00  0.00  0.00      0      0    112
 2012 212    60     6   1.0     1  0.01     4     1     0     1     0     4     0   0.0 0.000    60 0.000 0.000 0.000 0.000 0.000   0.00   0.00 233.4  0.00  0.00  0.11  0.75  0.50  0.00  0.00  0.00      0      0    130
 2012 213    61     7   2.0     1  0.01     5     1     0     2     0     5     0   0.0 0.000    60 0.000 0.000 0.000 0.000 0.000   0.00   0.00 221.5  0.00  0.00  0.14  0.74  0.50  0.00  0.00  0.00      0      0    148
 2012 214    62     8   2.0     1  0.01     6     1     0     2     0     7     0   0.0 0.000    60 0.000 0.000 0.000 0.000 0.000   0.00   0.00 213.6  0.00  0.00  0.17  0.74  0.50  0.00  0.00  0.00      0      0    166
 2012 215    63     9   2.0     1  0.02     7     1     0     3     0     8     0   0.0 0.000    60 0.000 0.000 0.000 0.000 0.000   0.00   0.00 208.0  0.00  0.00  0.21  0.74  0.50  0.00  0.00  0.00      0      0    184
 2012 216    64    10   3.0     1  0.02     9     1     0     4     0     9     0   0.0 0.000    60 0.000 0.000 0.000 0.000 0.000   0.00   0.00 203.8  0.00  0.00  0.24  0.74  0.50  0.00  0.00  0.00      0      0    202
 2012 217    65    11   3.0     1  0.02    10     1     0     5     0    11     0   0.0 0.000    60 0.000 0.000 0.000 0.000 0.000   0.00   0.00 200.5  0.00  0.00  0.27  0.74  0.50  0.01  0.00  0.00      0      0    220
 2012 218    66    12   3.0     1  0.02    12     1     0     6     0    12     0   0.0 0.000    60 0.000 0.000 0.000 0.000 0.000   0.00   0.00 197.9  0.00  0.00  0.31  0.74  0.50  0.01  0.00  0.00      0      0    238
 2012 219    67    13   4.0     1  0.03    14     1     0     7     0    14     0   0.0 0.000    60 0.000 0.000 0.000 0.000 0.000   0.00   0.00 218.0  0.00  0.00  0.34  0.74  0.50  0.01  0.00  0.00      0      0    256
 2012 220    68    14   4.0     1  0.03    16     1     0     8     0    16     0   0.0 0.000    60 0.000 0.000 0.000 0.000 0.000   0.00   0.00 213.5  0.00  0.00  0.37  0.74  0.50  0.02  0.00  0.00      0      0    274
 2012 221    69    15   4.0     1  0.04    18     1     0     9     0    18     0   0.0 0.000   193 0.000 0.000 0.000 0.000 0.000   0.00   0.00 209.3  0.00  0.00  0.40  0.74  0.50  0.02  0.00  0.00      0      0    292
 2012 222    70    16   4.0     1  0.04    20     1     0    11     0    21     0   0.0 0.000   210 0.000 0.000 0.000 0.000 0.000   0.00   0.00 205.8  0.00  0.00  0.44  0.74  0.51  0.02  0.01  0.00      0      0    311
 2012 223    71    17   5.0     1  0.05    24     1     0    12     0    24     0   0.0 0.000   225 0.000 0.000 0.000 0.000 0.000   0.00   0.00 202.7  0.00  0.00  0.47  0.74  0.51  0.03  0.01  0.00      0      0    329
 2012 224    72    18   5.0     1  0.05    27     1     0    14     0    28     0   0.0 0.000   236 0.000 0.000 0.000 0.000 0.000   0.00   0.00 198.0  0.00  0.00  0.50  0.74  0.51  0.03  0.01  0.00      0      0    347
 2012 225    73    19   5.0     1  0.06    30     1     0    16     0    31     0   0.0 0.000   247 0.000 0.000 0.000 0.000 0.000   0.00   0.00 194.5  0.00  0.00  0.54  0.74  0.51  0.03  0.02  0.00      0      0    365
 2012 226    74    20   5.0     1  0.07    34     1     0    18     0    35     0   0.0 0.000   259 0.000 0.000 0.000 0.000 0.000   0.00   0.00 191.3  0.00  0.00  0.57  0.74  0.51  0.04  0.02  0.01      0      0    383
 2012 227    75    21   6.0     2  0.07    38     6     0    20     0    44     0   0.0 0.000   268 0.000 0.000 0.000 0.000 0.000   0.00   0.00 190.4  0.00  0.00  0.60  0.74  0.51  0.04  0.03  0.01      0      0    401
 2012 228    76    22   6.0     2  0.08    42     9     0    21     0    50     0   0.0 0.000   275 0.000 0.000 0.000 0.000 0.000   0.00   0.00 189.7  0.00  0.00  0.63  0.74  0.51  0.04  0.03  0.01      0      0    419
 2012 229    77    23   6.0     2  0.09    46    12     0    23     0    58     0   0.0 0.000   286 0.000 0.000 0.000 0.000 0.000   0.00   0.00 188.9  0.00  0.00  0.67  0.74  0.51  0.05  0.03  0.02      0      0    437
 2012 230    78    24   6.0     2  0.10    52    16     0    25     0    68     0   0.0 0.000   297 0.000 0.000 0.000 0.000 0.000   0.00   0.00 188.2  0.00  0.00  0.70  0.74  0.51  0.05  0.04  0.02      0      0    455
 2012 231    79    25   7.0     2  0.11    57    21     0    28     0    78     0   0.0 0.000   310 0.000 0.000 0.000 0.000 0.000   0.00   0.00 186.0  0.00  0.00  0.73  0.74  0.51  0.05  0.04  0.02      0      0    472
 2012 232    80    26   7.0     2  0.12    64    27     0    31     0    91     0   0.0 0.000   325 0.000 0.000 0.000 0.000 0.000   0.00   0.00 183.9  0.00  0.00  0.76  0.74  0.52  0.06  0.04  0.03      0      0    490
 2012 233    81    27   7.0     2  0.13    72    33     0    34     0   106     0   0.0 0.000   341 0.000 0.000 0.000 0.000 0.000   0.00   0.00 182.0  0.00  0.00  0.79  0.74  0.52  0.06  0.05  0.03      0      0    508
 2012 234    82    28   7.0     2  0.14    80    40     0    37     0   120     0   0.0 0.000   358 0.000 0.000 0.000 0.000 0.000   0.00   0.00 180.5  0.00  0.00  0.83  0.74  0.52  0.07  0.05  0.04      0      0    526
 2012 235    83    29   7.0     2  0.16    89    48     0    41     0   137     0   0.0 0.000   377 0.000 0.000 0.000 0.000 0.000   0.00   0.00 179.0  0.00  0.00  0.86  0.74  0.52  0.07  0.06  0.04      0      0    544
 2012 236    84    30   8.0     2  0.18   101    57     0    46     0   158     0   0.0 0.000   399 0.000 0.000 0.000 0.000 0.000   0.00   0.00 177.7  0.00  0.00  0.89  0.75  0.53  0.08  0.06  0.05      0      0    562
 2012 237    85    31   8.0     2  0.19   110    65     0    50     0   176     0   0.0 0.000   419 0.000 0.000 0.000 0.000 0.000   0.00   0.00 176.7  0.00  0.00  0.93  0.75  0.53  0.09  0.07  0.06      0      0    580
 2012 238    86    32   8.0     2  0.21   122    75     0    55     0   197     0   0.0 0.000   445 0.000 0.000 0.000 0.000 0.000   0.00   0.00 175.7  0.00  0.00  0.96  0.75  0.54  0.09  0.08  0.06      0      0    598
 2012 239    87    33   8.0     3  0.23   129    94     0    59     0   223     0   0.0 0.000   474 0.000 0.000 0.000 0.000 0.000   0.00   0.00 175.5  0.00  0.00  0.99  0.76  0.54  0.10  0.09  0.07      0      0    616
 2012 240    88    34   9.0     3  0.24   137   113     0    63     0   250     0   0.0 0.000   504 0.000 0.000 0.000 0.000 0.000   0.00   0.00 175.3  0.00  0.00  1.00  0.76  0.55  0.11  0.09  0.08      0      0    634
 2012 241    89    35   9.0     3  0.26   147   133     0    67     0   279     0   0.0 0.000   538 0.000 0.000 0.000 0.000 0.000   0.00   0.00 175.2  0.00  0.00  1.00  0.76  0.55  0.11  0.10  0.08      0      0    652
 2012 242    90    36   9.0     3  0.28   158   155     0    73     0   313     0   0.0 0.000   575 0.000 0.000 0.000 0.000 0.000   0.00   0.00 175.2  0.00  0.00  1.00  0.77  0.56  0.12  0.11  0.09      0      0    670
 2012 243    91    37   9.0     3  0.30   169   178     0    78     0   347     0   0.0 0.000   614 0.000 0.000 0.000 0.000 0.000   0.00   0.00 175.1  0.00  0.00  1.00  0.77  0.56  0.13  0.11  0.10      0      0    688
 2012 244    92    38   9.0     3  0.32   180   200     0    83     0   380     0   0.0 0.000   614 0.000 0.000 0.000 0.000 0.000   0.00   0.00 175.1  0.00  0.00  1.00  0.78  0.57  0.14  0.12  0.11      0      0    706
 2012 245    93    39  10.0     3  0.34   194   226     0    89     0   420     0   0.0 0.000   614 0.000 0.000 0.000 0.000 0.000   0.00   0.00 175.1  0.00  0.00  1.00  0.78  0.57  0.14  0.13  0.12      0      0    724
 2012 246    94    40  10.0     3  0.36   208   252     0    95     0   461     0   0.0 0.000   614 0.000 0.000 0.000 0.000 0.000   0.00   0.00 175.1  0.00  0.00  1.00  0.79  0.58  0.15  0.14  0.13      0      0    742
 2012 247    95    41  10.0     3  0.39   224   280     0   102     0   504     0   0.0 0.000   614 0.000 0.000 0.000 0.000 0.000   0.00   0.00 175.2  0.00  0.00  1.00  0.79  0.59  0.16  0.15  0.13      0      0    760
 2012 248    96    42  10.0     3  0.42   240   311     0   109     0   552     0   0.0 0.000   614 0.000 0.000 0.000 0.000 0.000   0.00   0.00 175.2  0.00  0.00  1.00  0.80  0.60  0.17  0.16  0.15      0      0    778
 2012 249    97    43  10.0     3  0.45   254   338     0   115     0   592     0   0.0 0.000   614 0.000 0.000 0.000 0.000 0.000   0.00   0.00 175.2  0.00  0.00  1.00  0.81  0.61  0.18  0.17  0.16      0      0    796
 2012 250    98    44  11.0     3  0.47   269   368     0   122     0   637     0   0.0 0.000   614 0.000 0.000 0.000 0.000 0.000   0.00   0.00 175.1  0.00  0.00  1.00  0.82  0.61  0.19  0.18  0.17      0      0    814
 2012 251    99    45  11.0     3  0.51   290   406     0   131     0   696     0   0.0 0.000   614 0.000 0.000 0.000 0.000 0.000   0.00   0.00 175.2  0.00  0.00  1.00  0.82  0.62  0.20  0.19  0.18      0      0    832
 2012 252   100    46  11.0     3  0.55   311   447     0   141     0   758     0   0.0 0.000   613 0.000 0.000 0.000 0.000 0.000   0.00   0.00 175.2  0.00  0.00  1.00  0.84  0.63  0.22  0.21  0.19      0      0    850
 2012 253   101    47  11.0     3  0.57   325   477     0   147     0   802     0   0.0 0.000   613 0.000 0.000 0.000 0.000 0.000   0.00   0.00 175.0  0.00  0.00  1.00  0.85  0.65  0.23  0.22  0.21      0      0    868
 2012 254   102    48  11.0     3  0.61   346   521     0   157     0   867     0   0.0 0.000   613 0.000 0.000 0.000 0.000 0.000   0.00   0.00 175.0  0.00  0.00  1.00  0.85  0.65  0.24  0.23  0.22      0      0    885
 2012 255   103    49  11.0     3  0.64   365   563     0   167     0   928     0   0.0 0.000   613 0.000 0.000 0.000 0.000 0.000   0.00   0.00 174.9  0.00  0.00  1.00  0.87  0.67  0.26  0.25  0.23      0      0    902
 2012 256   104    50  12.0     3  0.67   386   612     0   177     0   998     0   0.0 0.000   613 0.000 0.000 0.000 0.000 0.000   0.00   0.00 174.7  0.00  0.00  1.00  0.88  0.68  0.27  0.26  0.25      1      0    920
 2012 257   105    51  12.0     3  0.71   409   664     0   188     0  1073     0   0.0 0.000   612 0.000 0.000 0.000 0.000 0.000   0.00   0.00 174.6  0.00  0.00  1.00  0.89  0.70  0.29  0.28  0.26      1      0    938
 2012 258   106    52  12.0     3  0.75   431   715     0   200     0  1146     0   0.0 0.000   612 0.000 0.000 0.000 0.000 0.000   0.00   0.00 174.4  0.00  0.00  1.00  0.91  0.71  0.31  0.30  0.28      1      0    955
 2012 259   107    53  12.0     3  0.79   455   770     0   211     0  1225     0   0.0 0.000   612 0.000 0.000 0.000 0.000 0.000   0.00   0.00 174.2  0.00  0.00  1.00  0.92  0.73  0.33  0.31  0.30      1      0    973
 2012 260   108    54  12.0     3  0.83   479   826     0   223     0  1304     0   0.0 0.000   611 0.000 0.000 0.000 0.000 0.000   0.00   0.00 174.0  0.00  0.00  1.00  0.94  0.74  0.34  0.33  0.32      2      0    990
 2012 261   109    55  12.0     3  0.85   491   888     0   234     0  1379     0   0.0 0.000   611 0.000 0.000 0.000 0.000 0.000   0.00   0.00 173.6  0.00  0.00  1.00  0.95  0.76  0.36  0.35  0.34      2      0   1007
 2012 262   110    56  13.0     3  0.87   501   935     0   242     0  1437     0   0.0 0.000   611 0.000 0.000 0.000 0.000 0.000   0.00   0.00 173.1  0.00  0.00  1.00  0.97  0.78  0.38  0.37  0.35      2      0   1024
 2012 263   111    57  13.0     3  0.89   515  1007     0   255     0  1522     0   0.0 0.000   610 0.000 0.000 0.000 0.000 0.000   0.00   0.00 172.6  0.00  0.00  1.00  0.98  0.79  0.39  0.38  0.37      3      0   1042
 2012 264   112    58  13.0     3  0.91   530  1082     0   268     0  1611     0   0.0 0.000   610 0.000 0.000 0.000 0.000 0.000   0.00   0.00 172.1  0.00  0.00  1.00  0.99  0.80  0.41  0.40  0.39      4      0   1060
 2012 265   113    59  13.0     3  0.93   544  1156     0   281     0  1701     0   0.0 0.000   609 0.000 0.000 0.000 0.000 0.000   0.00   0.00 171.6  0.00  0.00  1.00  1.01  0.82  0.43  0.42  0.41      4      0   1078
 2012 266   114    60  13.0     3  0.95   557  1221     0   292     0  1778     0   0.0 0.000   609 0.000 0.000 0.000 0.000 0.000   0.00   0.00 171.0  0.00  0.00  1.00  1.03  0.84  0.45  0.44  0.43      5      0   1095
 2012 267   115    61  13.0     3  0.97   572  1293     0   304     0  1865     0   0.0 0.000   608 0.000 0.000 0.000 0.000 0.000   0.00   0.00 170.4  0.00  0.00  1.00  1.04  0.86  0.47  0.46  0.45      6      0   1112
 2012 268   116    62  13.0     3  1.00   588  1376     0   318     0  1963     0   0.0 0.000   607 0.000 0.000 0.000 0.000 0.000   0.00   0.00 169.7  0.00  0.00  1.00  1.06  0.88  0.49  0.48  0.47      7      0   1130
 2012 269   117    63  13.0     4  0.99   587  1447     0   328     0  2034     0   0.0 0.000   603 0.000 0.000 0.000 0.000 0.000   0.00   0.00 168.9  0.00  0.00  1.00  1.08  0.90  0.52  0.50  0.49      8      0   1147
 2012 270   118    64  13.0     4  0.99   587  1546     0   342     0  2133     0   0.0 0.000   598 0.000 0.000 0.000 0.000 0.000   0.00   0.00 168.1  0.00  0.00  1.00  1.09  0.91  0.53  0.52  0.51     10      0   1165
 2012 271   119    65  13.0     4  0.98   587  1643     0   356     0  2230     0   0.0 0.000   593 0.000 0.000 0.000 0.000 0.000   0.00   0.00 167.3  0.00  0.00  1.00  1.11  0.93  0.55  0.54  0.53     11      0   1182
 2012 272   120    66  13.0     4  0.98   587  1741     0   369     0  2328     0   0.0 0.000   588 0.000 0.000 0.000 0.000 0.000   0.00   0.00 166.5  0.00  0.00  1.00  1.13  0.95  0.58  0.56  0.55     12      0   1199
 2012 273   121    67  13.0     4  0.97   587  1836     0   382     0  2423     0   0.0 0.000   582 0.000 0.000 0.000 0.000 0.000   0.00   0.00 165.7  0.00  0.00  1.00  1.15  0.97  0.60  0.59  0.57     14      0   1216
 2012 274   122    68  13.0     4  0.97   587  1915     0   392     0  2502     0   0.0 0.000   576 0.000 0.000 0.000 0.000 0.000   0.00   0.00 164.9  0.00  0.00  1.00  1.17  0.99  0.62  0.61  0.60     16      0   1234
 2012 275   123    69  13.0     4  0.96   587  1994     0   403     0  2581     0   0.0 0.000   570 0.000 0.000 0.000 0.000 0.000   0.00   0.00 164.0  0.00  0.00  1.00  1.18  1.01  0.64  0.63  0.61     18      0   1252
 2012 276   124    70  13.0     5  0.96   587  1277   532   409   811  2675  2803  29.0 0.199   270 0.000 0.000 0.000 0.000 0.000   0.00  65.63 163.2  0.00  0.00  1.00  1.20  1.02  0.65  0.64  0.63     20      0   1270
 2012 277   125    71  13.0     5  0.95   586  1346   539   413   818  2751  2839  28.8 0.196   270 0.000 0.000 0.000 0.000 0.000   0.00  65.92 162.4  0.00  0.00  1.00  1.20  1.03  0.67  0.66  0.64     22      0   1287
 2012 278   126    72  13.0     5  0.95   586  1409   546   417   825  2820  2873  28.7 0.194   270 0.000 0.000 0.000 0.000 0.000   0.00  66.19 161.6  0.00  0.00  1.00  1.21  1.04  0.68  0.66  0.65     24      0   1304
 2012 279   127    73  13.0     5  0.94   586  1495   553   423   831  2913  2908  28.6 0.190   270 0.000 0.000 0.000 0.000 0.000   0.00  66.45 160.7  0.00  0.00  1.00  1.22  1.05  0.68  0.67  0.66     27      0   1321
 2012 280   128    74  13.0     5  0.94   586  1550   584   428   863  3000  3076  28.1 0.195   270 0.000 0.000 0.000 0.000 0.000   0.00  67.69 159.9  0.00  0.00  1.00  1.23  1.06  0.70  0.68  0.67     29      0   1339
 2012 281   129    75  13.0     5  0.93   586  1602   615   433   894  3082  3237  27.6 0.200   270 0.000 0.000 0.000 0.000 0.000   0.00  68.80 159.1  0.00  0.00  1.00  1.23  1.07  0.71  0.69  0.68     32      0   1356
 2012 282   130    76  13.0     5  0.93   586  1651   645   438   924  3160  3394  27.2 0.204   270 0.000 0.000 0.000 0.000 0.000   0.00  69.81 158.2  0.00  0.00  1.00  1.24  1.07  0.72  0.70  0.69     35      0   1373
 2012 283   131    77  13.0     5  0.92   586  1713   674   443   953  3251  3549  26.9 0.207   270 0.000 0.000 0.000 0.000 0.000   0.00  70.74 157.3  0.00  0.00  1.00  1.25  1.08  0.72  0.71  0.70     38      0   1390
 2012 284   132    78  13.0     5  0.92   585  1768   703   448   982  3336  3700  26.5 0.211   270 0.000 0.000 0.000 0.000 0.000   0.00  71.60 156.5  0.00  0.00  1.00  1.26  1.09  0.74  0.72  0.71     41      0   1407
 2012 285   133    79  13.0     5  0.91   585  1825   732   453  1011  3422  3852  26.2 0.214   270 0.000 0.000 0.000 0.000 0.000   0.00  72.41 155.6  0.00  0.00  1.00  1.26  1.10  0.75  0.74  0.72     44      0   1424
 2012 286   134    80  13.0     5  0.91   585  1879   760   458  1039  3503  4003  26.0 0.217   270 0.000 0.051 0.000 0.000 0.000   0.00  73.17 154.7  0.00  0.00  1.00  1.26  1.11  0.76  0.75  0.73     47      0   1441
 2012 287   135    81  13.0     5  0.90   585  1932   785   463  1064  3581  4131  25.8 0.219   270 0.111 0.407 0.000 0.000 0.000   0.00  73.78 153.8  0.00  0.00  1.00  1.27  1.11  0.77  0.76  0.74     51      0   1458
 2012 288   136    82  13.0     5  0.89   585  1984   812   467  1091  3660  4276  25.5 0.222   270 0.000 0.000 0.000 0.000 0.000   0.00  74.44 152.8  0.00  0.00  1.00  1.28  1.12  0.78  0.77  0.75     54      0   1475
 2012 289   137    83  13.0     5  0.89   585  2038   839   472  1118  3741  4418  25.3 0.224   270 0.000 0.000 0.000 0.000 0.000   0.00  75.06 151.9  0.00  0.00  1.00  1.29  1.13  0.79  0.77  0.76     58      0   1492
 2012 290   138    84  13.0     5  0.88   585  2084   866   475  1145  3813  4558  25.1 0.227   270 0.000 0.000 0.000 0.000 0.000   0.00  75.64 150.9  0.00  0.00  1.00  1.29  1.14  0.79  0.78  0.77     62      0   1509
 2012 291   139    85  13.0     5  0.88   584  2101   893   475  1172  3857  4698  24.9 0.231   270 0.000 0.000 0.000 0.000 0.000   0.00  76.20 150.0  0.00  0.00  1.00  1.30  1.14  0.80  0.79  0.78     66      0   1526
 2012 292   140    86  13.0     5  0.87   584  2152   919   479  1198  3934  4835  24.8 0.234   270 0.000 0.051 0.000 0.000 0.000   0.00  76.71 149.0  0.00  0.00  1.00  1.30  1.15  0.81  0.79  0.78     70      0   1543
 2012 293   141    87  13.0     5  0.85   584  2177   932   481  1211  3971  4903  24.7 0.235   270 0.491 0.661 0.000 0.000 0.000   0.00  76.96 145.5  0.00  0.00  1.00  1.30  1.15  0.82  0.80  0.79     75      0   1560
 2012 294   142    88  13.0     5  0.83   583  2195   947   481  1226  4004  4985  24.6 0.237   270 0.409 0.606 0.000 0.000 0.000   0.00  77.25 142.6  0.00  0.00  1.00  1.29  1.16  0.82  0.80  0.80     80      0   1578
 2012 295   143    89  13.0     5  0.82   583  2211   956   481  1235  4029  5033  24.5 0.237   270 0.628 0.752 0.000 0.000 0.000   0.00  77.42 140.0  0.00  0.00  1.00  1.29  1.16  0.83  0.81  0.80     86      0   1595
 2012 296   144    90  13.0     5  0.79   582  2225   966   481  1244  4052  5082  24.5 0.238   270 0.606 0.738 0.000 0.000 0.000   0.00  77.59 135.9  0.00  0.00  1.00  1.29  1.17  0.83  0.81  0.81     92      0   1611
 2012 297   145    91  13.0     5  0.78   582  2256   987   483  1265  4104  5193  24.4 0.240   270 0.172 0.448 0.000 0.000 0.000   0.00  77.96 134.8  0.00  0.00  1.00  1.29  1.17  0.83  0.81  0.81     98      0   1628
 2012 298   146    92  13.0     5  0.77   582  2264  1003   482  1282  4128  5281  24.3 0.243   270 0.341 0.560 0.000 0.000 0.000   0.00  78.25 132.6  0.00  0.00  1.00  1.28  1.17  0.84  0.82  0.82    105      0   1646
 2012 299   147    93  13.0     5  0.76   581  2274  1011   481  1290  4145  5323  24.2 0.244   270 0.686 0.791 0.000 0.000 0.000   0.00  78.38 130.0  0.00  0.00  1.00  1.28  1.17  0.84  0.82  0.82    112      0   1664
 2012 300   148    94  13.0     5  0.74   581  2282  1018   479  1297  4160  5357  24.2 0.245   270 0.733 0.822 0.000 0.000 0.000   0.00  78.49 127.4  0.00  0.00  1.00  1.27  1.17  0.84  0.82  0.82    120      0   1681
 2012 301   149    95  13.0     5  0.72   580  2290  1026   478  1305  4175  5399  24.2 0.246   270 0.674 0.783 0.000 0.000 0.000   0.00  78.62 123.2  0.00  0.00  1.00  1.27  1.17  0.84  0.82  0.82    128      0   1698
 2012 302   150    96  13.0     5  0.70   580  2303  1037   477  1316  4199  5459  24.1 0.247   270 0.509 0.672 0.000 0.000 0.000   0.00  78.81 120.2  0.00  0.00  1.00  1.27  1.17  0.84  0.82  0.82    136      0   1715
 2012 303   151    97  13.0     5  0.69   580  2314  1060   476  1339  4233  5580  24.0 0.250   270 0.000 0.000 0.000 0.000 0.000   0.00  79.17 119.2  0.00  0.00  1.00  1.28  1.16  0.84  0.82  0.82    145      0   1732
 2012 304   152    98  13.0     5  0.67   579  2324  1070   475  1349  4253  5632  24.0 0.252   270 0.563 0.708 0.000 0.000 0.000   0.00  79.33 115.9  0.00  0.00  1.00  1.28  1.16  0.84  0.82  0.82    154      0   1748
 2012 305   153    99  13.0     5  0.65   579  2331  1075   473  1354  4264  5660  23.9 0.252   270 0.767 0.844 0.000 0.000 0.000   0.00  79.41 111.6  0.00  0.00  1.00  1.27  1.16  0.84  0.82  0.82    164      0   1765
 2012 306   154   100  13.0     5  0.62   578  2336  1080   470  1359  4273  5684  23.9 0.253   270 0.794 0.863 0.000 0.000 0.000   0.00  79.48 107.3  0.00  0.00  1.00  1.27  1.16  0.84  0.82  0.82    174      0   1782
 2012 307   155   101  13.0     5  0.60   577  2341  1085   468  1363  4282  5708  23.9 0.253   270 0.806 0.871 0.000 0.000 0.000   0.00  79.55 103.1  0.00  0.00  1.00  1.26  1.15  0.84  0.82  0.82    185      0   1799
 2012 308   156   102  13.0     5  0.57   577  2345  1089   465  1368  4290  5732  23.9 0.254   270 0.809 0.872 0.000 0.000 0.000   0.00  79.61  99.0  0.00  0.00  1.00  1.26  1.15  0.84  0.82  0.82    197      0   1816
 2012 309   157   103  13.0     5  0.57   577  2363  1110   465  1389  4329  5842  23.8 0.256   270 0.110 0.407 0.000 0.000 0.000   0.00  79.92  98.0  0.00  0.00  1.00  1.25  1.15  0.84  0.82  0.82    209      0   1833
 2012 310   158   104  13.0     5  0.54   576  2367  1114   462  1393  4336  5865  23.8 0.257   270 0.813 0.875 0.000 0.000 0.000   0.00  79.98  94.1  0.00  0.00  1.00  1.25  1.14  0.84  0.82  0.82    221      0   1851
 2012 311   159   105  13.0     5  0.52   576  2370  1119   459  1398  4343  5889  23.7 0.258   270 0.812 0.875 0.000 0.000 0.000   0.00  80.05  90.4  0.00  0.00  1.00  1.24  1.14  0.84  0.82  0.82    234      0   1869
 2012 312   160   106  13.0     5  0.50   575  2373  1123   456  1402  4349  5910  23.7 0.258   270 0.815 0.877 0.000 0.000 0.000   0.00  80.10  86.8  0.00  0.00  1.00  1.24  1.13  0.83  0.81  0.82    248      0   1885
 2012 313   161   107  13.0     5  0.48   575  2375  1127   453  1406  4355  5930  23.7 0.259   270 0.826 0.884 0.000 0.000 0.000   0.00  80.16  83.3  0.00  0.00  1.00  1.23  1.13  0.83  0.81  0.82    262      0   1902
 2012 314   162   108  13.0     5  0.46   574  2378  1131   450  1410  4361  5951  23.7 0.259   270 0.817 0.878 0.000 0.000 0.000   0.00  80.21  79.9  0.00  0.00  1.00  1.22  1.12  0.83  0.81  0.82    276      0   1918
 2012 315   163   109  13.0     5  0.44   574  2379  1137   447  1416  4369  5983  23.7 0.260   270 0.669 0.779 0.000 0.000 0.000   0.00  80.30  77.3  0.00  0.00  1.00  1.22  1.12  0.83  0.81  0.82    291      0   1932
 2012 316   164   110  13.0     5  0.43   573  2381  1142   444  1421  4375  6010  23.6 0.261   270 0.709 0.806 0.000 0.000 0.000   0.00  80.37  74.6  0.00  0.00  1.00  1.21  1.11  0.83  0.81  0.81    307      0   1946
 2012 317   165   111  13.0     5  0.41   573  2382  1147   441  1426  4381  6038  23.6 0.262   270 0.735 0.823 0.000 0.000 0.000   0.00  80.44  71.9  0.00  0.00  1.00  1.21  1.11  0.82  0.80  0.81    322      0   1961
 2012 318   166   112  13.0     5  0.40   573  2382  1153   438  1432  4387  6069  23.6 0.263   270 0.717 0.811 0.000 0.000 0.000   0.00  80.53  69.4  0.00  0.00  1.00  1.20  1.10  0.82  0.80  0.81    338      0   1977
 2012 319   167   113  13.0     5  0.38   572  2383  1157   434  1436  4391  6089  23.6 0.263   270 0.831 0.887 0.000 0.000 0.000   0.00  80.58  66.6  0.00  0.00  1.00  1.19  1.09  0.82  0.80  0.81    355      0   1994
 2012 320   168   114  13.0     5  0.36   572  2384  1161   431  1439  4395  6108  23.6 0.264   270 0.836 0.891 0.000 0.000 0.000   0.00  80.63  63.8  0.00  0.00  1.00  1.19  1.09  0.81  0.80  0.81    372      0   2011
 2012 321   169   115  13.0     5  0.35   572  2384  1165   428  1444  4399  6133  23.5 0.265   270 0.824 0.883 0.000 0.000 0.000   0.00  80.69  61.2  0.00  0.00  1.00  1.18  1.08  0.81  0.79  0.80    389      0   2028
 2012 322   170   116  13.0     6  0.35   572  2384  1165   428  1444  4399  6133  23.5 0.265   270 0.806 0.871 0.000 0.000 0.000   0.00  80.69  61.2  0.00  0.00  1.00  1.18  1.08  0.81  0.79  0.80    389      0   2045
 2012 323   171   117  13.0    20  0.35   572  2384  1165   428  1444  4399  6133  23.5 0.265   270 0.834 0.890 0.000 0.000 0.000   0.00  80.69  61.2  0.00  0.00  1.00  1.17  1.07  0.81  0.79  0.80    389      0   2045
 2012 324   172   118  13.0    20  0.35   572  2384  1165   428  1444  4399  6133  23.5 0.265   270 0.830 0.887 0.000 0.000 0.000   0.00  80.69  61.2  0.00  0.00  1.00  1.16  1.07  0.80  0.79  0.80    389      0   2062
