*WATER BALANCE OUTPUT FILE

*DSSAT Cropping System Model Ver. 4.8.2.000 -release  DEC 29, 2025 16:23:24

*RUN   1        : F1 NE 4                   RICER048 CRDA1201    1
 MODEL          : RICER048 - Rice
 EXPERIMENT     : CRDA1201 WH ESSAI VARIETE DAROU PAKA 2012
 DATA PATH      :
 TREATMENT  1   : F1 NE 4                   RICER048
  

!     WATER BALANCE PARAMETERS
!     ========================                 --mm--

!     Soil H20 (start) on Year/day 2012/153    281.50
!     Soil H20 (final) on Year/day 2012/324    188.83
!     Effective Irrigation                       0.00
!     Precipitation                            508.50
!     Water added with new mulch                 0.00
!     Net lateral flow                           0.00
!     Drainage                                  10.41
!     Tiledrain flow                             0.00
!     Runoff                                     3.97
!     Mulch evaporation                          0.10
!     Soil Evaporation                         454.09
!     Transpiration                            132.48
!     Total evapotranspiration                 586.57
!     Total potential evapotranspiration      1000.46

!     Initial mulch water content                0.00
!     Final mulch water content                  0.12

!     Final Balance                             0.002

