*Soil Carbon Balance

*DSSAT Cropping System Model Ver. 4.8.2.000 -release  DEC 29, 2025 16:23:24

*RUN   1        : F1 NE 4                   RICER048 CRDA1201    1
 MODEL          : RICER048 - Rice
 EXPERIMENT     : CRDA1201 WH ESSAI VARIETE DAROU PAKA 2012
 DATA PATH      :
 TREATMENT  1   : F1 NE 4                   RICER048
  

!                                                 Initial               Final
!                                                Year/DOY            Year/DOY
!                                                2012-152            2012-152
! SOIL C BALANCE                                 --------- kg[C]/ha ---------
!  SOIL & SURFACE ORGANIC C
!   Soil Organic C                               74091.00            73820.46
!   Surface Organic C                                0.00               10.53
!   Soil Litter C                                   84.00               13.64
!   Surface Litter C                                 0.00              130.05
!   Soil methane C stored                            0.00                0.00
!                                                --------            --------
!   Total C in Soil and Surface Layers           74175.00            73974.67
!  ADDITIONS AND REMOVALS:
!   C in Harvest Residues from Previous              0.00
!   C from Organic Applications                      0.00
!   C in returned senesced material                155.50
!   CO2-C emitted                                  355.80
!   CH4-C emitted                                    0.00
!   CH4-C leached                                    0.00
!   CH4-C plant uptake                               0.00
!                                                --------            --------
! TOTAL C BALANCE                                74330.50            74330.47
!   Balance                                                            -0.024
