*SOIL-PLANT-ATMOSPHERE MODULE OUTPUT FILE

*DSSAT Cropping System Model Ver. 4.8.2.000 -release  APR 17, 2025 20:30:48

*RUN   1        : F1 NE 4                   RICER048 CRDA1201    1
 MODEL          : RICER048 - Rice
 EXPERIMENT     : CRDA1201 WH ESSAI VARIETE DAROU PAKA 2012
 DATA PATH      :
 TREATMENT  1   : F1 NE 4                   RICER048
  
!                                                                                                                                                                                        Soil evaporation (mm/d) by soil depth (cm):
!                                                                                                                                                                                        0-5    5-15   15-30   30-45   45-60   60-80  80-100
@YEAR DOY   DAS   SRAA  TMAXA  TMINA    REFA    EOAA    EOPA    EOSA    ETAA    EPAA    ESAA    EFAA    EMAA    EOAC    ETAC    EPAC    ESAC    EFAC    EMAC    KCAA    KBSA    KEAA    ES1D    ES2D    ES3D    ES4D    ES5D    ES6D    ES7D   TRWUD   TWUPD
 2012 153     1  24.60  42.70  25.80 -99.000  10.835   0.000  10.835   6.360   0.000   6.360   0.000   0.000   10.84    6.36    0.00    6.36    0.00    0.00 -99.000 -99.000 -99.000   1.687   1.176   1.067   0.739   0.580   0.603   0.507   0.000   0.000
 2012 154     2  24.00  43.50  26.60 -99.000  11.084   0.000  11.084   6.148   0.000   6.148   0.000   0.000   21.92   12.51    0.00   12.51    0.00    0.00 -99.000 -99.000 -99.000   1.548   1.136   1.049   0.735   0.576   0.599   0.504   0.000   0.000
 2012 155     3  20.80  43.70  27.70 -99.000   9.628   0.000   9.628   1.081   0.000   1.081   0.000   0.000   31.55   13.59    0.00   13.59    0.00    0.00 -99.000 -99.000 -99.000   0.888   0.120   0.041   0.015   0.008   0.006   0.003   0.000   0.000
 2012 156     4  16.80  43.30  28.40 -99.000   7.647   0.000   7.647   1.036   0.000   1.036   0.000   0.000   39.19   14.62    0.00   14.62    0.00    0.00 -99.000 -99.000 -99.000   0.843   0.119   0.041   0.015   0.008   0.006   0.003   0.000   0.000
 2012 157     5  18.60  42.20  27.60 -99.000   8.036   0.000   8.036   6.103   0.000   6.103   0.000   0.000   47.23   20.73    0.00   20.73    0.00    0.00 -99.000 -99.000 -99.000   1.566   1.118   1.035   0.726   0.567   0.592   0.499   0.000   0.000
 2012 158     6  21.60  41.90  27.60 -99.000   9.377   0.000   9.377   6.059   0.000   6.059   0.000   0.000   56.61   26.79    0.00   26.79    0.00    0.00 -99.000 -99.000 -99.000   1.554   1.112   1.033   0.723   0.558   0.585   0.493   0.000   0.000
 2012 159     7  24.70  39.70  28.80 -99.000   9.652   0.000   9.652   1.081   0.000   1.081   0.000   0.000   66.26   27.87    0.00   27.87    0.00    0.00 -99.000 -99.000 -99.000   0.892   0.118   0.041   0.015   0.008   0.005   0.003   0.000   0.000
 2012 160     8  16.20  38.30  28.30 -99.000   5.876   0.000   5.876   0.999   0.000   0.999   0.000   0.000   72.14   28.87    0.00   28.87    0.00    0.00 -99.000 -99.000 -99.000   0.810   0.117   0.041   0.015   0.008   0.005   0.003   0.000   0.000
 2012 161     9  23.60  38.80  28.40 -99.000   8.741   0.000   8.741   0.925   0.000   0.925   0.000   0.000   80.88   29.79    0.00   29.79    0.00    0.00 -99.000 -99.000 -99.000   0.737   0.116   0.041   0.015   0.008   0.005   0.003   0.000   0.000
 2012 162    10  10.60  34.40  28.40 -99.000   3.197   0.000   3.197   1.031   0.000   1.031   0.000   0.000   84.07   30.82    0.00   30.82    0.00    0.00 -99.000 -99.000 -99.000   0.841   0.117   0.041   0.015   0.008   0.005   0.003   0.000   0.000
 2012 163    11  25.10  34.10  27.30 -99.000   7.603   0.000   7.603   1.127   0.000   1.127   0.000   0.000   91.68   31.95    0.00   31.95    0.00    0.00 -99.000 -99.000 -99.000   0.936   0.118   0.041   0.015   0.008   0.005   0.003   0.000   0.000
 2012 164    12  15.90  39.90  27.10 -99.000   6.192   0.000   6.192   1.041   0.000   1.041   0.000   0.000   97.87   32.99    0.00   32.99    0.00    0.00 -99.000 -99.000 -99.000   0.851   0.118   0.041   0.015   0.008   0.005   0.003   0.000   0.000
 2012 165    13  19.80  40.20  26.40 -99.000   7.752   0.000   7.752   0.963   0.000   0.963   0.000   0.000  105.62   33.95    0.00   33.95    0.00    0.00 -99.000 -99.000 -99.000   0.774   0.117   0.041   0.015   0.008   0.005   0.003   0.000   0.000
 2012 166    14  12.80  36.80  27.30 -99.000   4.253   0.000   4.253   0.891   0.000   0.891   0.000   0.000  109.87   34.84    0.00   34.84    0.00    0.00 -99.000 -99.000 -99.000   0.703   0.116   0.041   0.015   0.008   0.005   0.003   0.000   0.000
 2012 167    15  23.50  36.20  27.70 -99.000   7.560   0.000   7.560   0.827   0.000   0.827   0.000   0.000  117.43   35.67    0.00   35.67    0.00    0.00 -99.000 -99.000 -99.000   0.639   0.116   0.041   0.015   0.007   0.005   0.003   0.000   0.000
 2012 168    16  25.40  39.50  26.10 -99.000   9.506   0.000   9.506   0.768   0.000   0.768   0.000   0.000  126.94   36.44    0.00   36.44    0.00    0.00 -99.000 -99.000 -99.000   0.581   0.115   0.040   0.015   0.007   0.005   0.003   0.000   0.000
 2012 169    17  24.60  41.30  26.40 -99.000   9.990   0.000   9.990   1.017   0.000   1.017   0.000   0.000  136.93   37.45    0.00   37.45    0.00    0.00 -99.000 -99.000 -99.000   0.826   0.119   0.041   0.015   0.007   0.005   0.003   0.000   0.000
 2012 170    18  25.00  42.40  25.50 -99.000  10.899   0.000  10.899   6.124   0.000   6.124   0.000   0.000  147.83   43.58    0.00   43.58    0.00    0.00 -99.000 -99.000 -99.000   1.644   1.128   1.030   0.710   0.549   0.576   0.487   0.000   0.000
 2012 171    19  19.10  38.90  24.70 -99.000   7.038   0.000   7.038   5.865   0.000   5.865   0.000   0.000  154.86   49.44    0.00   49.44    0.00    0.00 -99.000 -99.000 -99.000   1.465   1.094   1.020   0.695   0.540   0.568   0.482   0.000   0.000
 2012 172    20  17.40  39.10  26.10 -99.000   6.480   0.000   6.480   1.026   0.000   1.026   0.000   0.000  161.34   50.47    0.00   50.47    0.00    0.00 -99.000 -99.000 -99.000   0.840   0.116   0.040   0.014   0.007   0.005   0.003   0.000   0.000
 2012 173    21  24.20  35.60  25.60 -99.000   7.487   0.000   7.487   5.902   0.000   5.902   0.000   0.000  168.83   56.37    0.00   56.37    0.00    0.00 -99.000 -99.000 -99.000   1.536   1.100   1.017   0.681   0.531   0.561   0.476   0.000   0.000
 2012 174    22  24.80  39.40  25.10 -99.000   9.459   0.000   9.459   5.906   0.000   5.906   0.000   0.000  178.29   62.28    0.00   62.28    0.00    0.00 -99.000 -99.000 -99.000   1.556   1.107   1.028   0.669   0.522   0.553   0.471   0.000   0.000
 2012 175    23  19.00  39.60  24.30 -99.000   7.183   0.000   7.183   1.079   0.000   1.079   0.000   0.000  185.47   63.36    0.00   63.36    0.00    0.00 -99.000 -99.000 -99.000   0.892   0.117   0.041   0.014   0.007   0.005   0.003   0.000   0.000
 2012 176    24  24.10  37.50  27.10 -99.000   8.337   0.000   8.337   0.997   0.000   0.997   0.000   0.000  193.81   64.35    0.00   64.35    0.00    0.00 -99.000 -99.000 -99.000   0.811   0.116   0.041   0.014   0.007   0.005   0.003   0.000   0.000
 2012 177    25  14.40  29.30  25.70 -99.000   4.064   0.000   4.064   0.923   0.000   0.923   0.000   0.000  197.87   65.28    0.00   65.28    0.00    0.00 -99.000 -99.000 -99.000   0.737   0.116   0.041   0.014   0.007   0.005   0.003   0.000   0.000
 2012 178    26  21.90  35.40  24.90 -99.000   6.638   0.000   6.638   0.855   0.000   0.855   0.000   0.000  204.51   66.13    0.00   66.13    0.00    0.00 -99.000 -99.000 -99.000   0.670   0.115   0.041   0.014   0.007   0.005   0.003   0.000   0.000
 2012 179    27  25.60  32.00  25.60 -99.000   7.373   0.000   7.373   0.793   0.000   0.793   0.000   0.000  211.89   66.93    0.00   66.93    0.00    0.00 -99.000 -99.000 -99.000   0.609   0.114   0.041   0.014   0.007   0.005   0.003   0.000   0.000
 2012 180    28  23.20  35.40  24.10 -99.000   6.950   0.000   6.950   1.007   0.000   1.007   0.000   0.000  218.84   67.93    0.00   67.93    0.00    0.00 -99.000 -99.000 -99.000   0.820   0.118   0.041   0.014   0.007   0.005   0.003   0.000   0.000
 2012 181    29  22.00  34.80  24.60 -99.000   6.617   0.000   6.617   6.076   0.000   6.076   0.000   0.000  225.45   74.01    0.00   74.01    0.00    0.00 -99.000 -99.000 -99.000   1.722   1.138   1.029   0.663   0.513   0.546   0.466   0.000   0.000
 2012 182    30  11.70  32.60  24.40 -99.000   3.457   0.000   3.457   3.457   0.000   3.457   0.000   0.000  228.91   77.47    0.00   77.47    0.00    0.00 -99.000 -99.000 -99.000   0.999   0.663   0.586   0.378   0.279   0.298   0.255   0.000   0.000
 2012 183    31  22.70  33.40  25.20 -99.000   6.823   0.000   6.823   6.471   0.000   6.471   0.000   0.000  235.73   83.94    0.00   83.94    0.00    0.00 -99.000 -99.000 -99.000   1.855   1.278   1.102   0.729   0.516   0.534   0.458   0.000   0.000
 2012 184    32  22.40  33.40  24.80 -99.000   6.687   0.000   6.687   6.438   0.000   6.438   0.000   0.000  242.42   90.38    0.00   90.38    0.00    0.00 -99.000 -99.000 -99.000   1.797   1.257   1.107   0.752   0.545   0.527   0.453   0.000   0.000
 2012 185    33  23.30  35.10  23.40 -99.000   7.006   0.000   7.006   6.288   0.000   6.288   0.000   0.000  249.43   96.66    0.00   96.66    0.00    0.00 -99.000 -99.000 -99.000   1.775   1.175   1.064   0.743   0.565   0.521   0.445   0.000   0.000
 2012 186    34  17.70  34.70  24.10 -99.000   5.348   0.000   5.348   5.348   0.000   5.348   0.000   0.000  254.77  102.01    0.00  102.01    0.00    0.00 -99.000 -99.000 -99.000   1.419   0.999   0.913   0.643   0.505   0.479   0.390   0.000   0.000
 2012 187    35  23.00  31.70  25.30 -99.000   6.705   0.000   6.705   1.065   0.000   1.065   0.000   0.000  261.48  103.08    0.00  103.08    0.00    0.00 -99.000 -99.000 -99.000   0.881   0.114   0.039   0.015   0.008   0.005   0.003   0.000   0.000
 2012 188    36  24.60  35.30  25.50 -99.000   7.518   0.000   7.518   0.992   0.000   0.992   0.000   0.000  269.00  104.07    0.00  104.07    0.00    0.00 -99.000 -99.000 -99.000   0.809   0.113   0.039   0.015   0.008   0.005   0.003   0.000   0.000
 2012 189    37  24.70  38.90  25.20 -99.000   9.029   0.000   9.029   0.925   0.000   0.925   0.000   0.000  278.02  104.99    0.00  104.99    0.00    0.00 -99.000 -99.000 -99.000   0.742   0.113   0.039   0.015   0.008   0.005   0.003   0.000   0.000
 2012 190    38  20.10  33.30  25.20 -99.000   5.885   0.000   5.885   0.863   0.000   0.863   0.000   0.000  283.91  105.86    0.00  105.86    0.00    0.00 -99.000 -99.000 -99.000   0.681   0.112   0.039   0.015   0.008   0.005   0.003   0.000   0.000
 2012 191    39  20.70  31.60  25.50 -99.000   5.949   0.000   5.949   0.806   0.000   0.806   0.000   0.000  289.86  106.66    0.00  106.66    0.00    0.00 -99.000 -99.000 -99.000   0.625   0.111   0.039   0.015   0.008   0.005   0.003   0.000   0.000
 2012 192    40  19.40  31.90  24.40 -99.000   5.534   0.000   5.534   0.754   0.000   0.754   0.000   0.000  295.39  107.42    0.00  107.42    0.00    0.00 -99.000 -99.000 -99.000   0.574   0.111   0.039   0.015   0.008   0.005   0.003   0.000   0.000
 2012 193    41  19.90  33.00  25.20 -99.000   5.757   0.000   5.757   0.706   0.000   0.706   0.000   0.000  301.15  108.12    0.00  108.12    0.00    0.00 -99.000 -99.000 -99.000   0.527   0.110   0.039   0.015   0.008   0.005   0.003   0.000   0.000
 2012 194    42  21.00  33.70  24.80 -99.000   6.087   0.000   6.087   0.662   0.000   0.662   0.000   0.000  307.24  108.78    0.00  108.78    0.00    0.00 -99.000 -99.000 -99.000   0.483   0.110   0.039   0.015   0.008   0.005   0.003   0.000   0.000
 2012 195    43  24.10  35.10  25.10 -99.000   7.115   0.000   7.115   0.622   0.000   0.622   0.000   0.000  314.35  109.41    0.00  109.41    0.00    0.00 -99.000 -99.000 -99.000   0.444   0.109   0.039   0.015   0.008   0.005   0.003   0.000   0.000
 2012 196    44  23.80  32.90  24.70 -99.000   6.808   0.000   6.808   0.854   0.000   0.854   0.000   0.000  321.16  110.26    0.00  110.26    0.00    0.00 -99.000 -99.000 -99.000   0.675   0.110   0.039   0.015   0.008   0.005   0.003   0.000   0.000
 2012 197    45  21.00  33.20  25.20 -99.000   6.220   0.000   6.220   6.220   0.000   6.220   0.000   0.000  327.38  116.48    0.00  116.48    0.00    0.00 -99.000 -99.000 -99.000   1.708   1.181   1.041   0.727   0.569   0.559   0.435   0.000   0.000
 2012 198    46  24.00  33.00  25.40 -99.000   7.190   0.000   7.190   6.287   0.000   6.287   0.000   0.000  334.57  122.77    0.00  122.77    0.00    0.00 -99.000 -99.000 -99.000   1.687   1.212   1.073   0.740   0.577   0.565   0.432   0.000   0.000
 2012 199    47  20.70  31.50  25.70 -99.000   6.051   0.000   6.051   5.929   0.000   5.929   0.000   0.000  340.62  128.70    0.00  128.70    0.00    0.00 -99.000 -99.000 -99.000   1.460   1.123   1.041   0.733   0.574   0.570   0.427   0.000   0.000
 2012 200    48  18.60  35.00  25.00 -99.000   5.568   0.000   5.568   5.568   0.000   5.568   0.000   0.000  346.19  134.27    0.00  134.27    0.00    0.00 -99.000 -99.000 -99.000   1.473   1.045   0.951   0.666   0.523   0.521   0.388   0.000   0.000
 2012 201    49  22.30  36.00  24.60 -99.000   7.155   0.000   7.155   6.155   0.000   6.155   0.000   0.000  353.34  140.42    0.00  140.42    0.00    0.00 -99.000 -99.000 -99.000   1.663   1.165   1.047   0.727   0.572   0.562   0.419   0.000   0.000
 2012 202    50  18.00  30.60  25.80 -99.000   5.213   0.000   5.213   5.213   0.000   5.213   0.000   0.000  358.56  145.63    0.00  145.63    0.00    0.00 -99.000 -99.000 -99.000   1.398   0.977   0.894   0.622   0.489   0.476   0.356   0.000   0.000
 2012 203    51  21.70  35.20  25.30 -99.000   6.668   0.000   6.668   5.915   0.000   5.915   0.000   0.000  365.23  151.55    0.00  151.55    0.00    0.00 -99.000 -99.000 -99.000   1.524   1.110   1.033   0.722   0.567   0.548   0.410   0.000   0.000
 2012 204    52  24.70  35.70  22.90 -99.000   7.591   0.000   7.591   1.054   0.000   1.054   0.000   0.000  372.82  152.60    0.00  152.60    0.00    0.00 -99.000 -99.000 -99.000   0.867   0.116   0.040   0.015   0.008   0.005   0.003   0.000   0.000
 2012 205    53  23.70  33.80  22.60 -99.000   6.881   0.000   6.881   0.976   0.000   0.976   0.000   0.000  379.70  153.58    0.00  153.58    0.00    0.00 -99.000 -99.000 -99.000   0.790   0.116   0.040   0.015   0.008   0.005   0.003   0.000   0.000
 2012 206    54  17.10  32.40  24.50 -99.000   4.939   0.000   4.939   0.904   0.000   0.904   0.000   0.000  384.64  154.48    0.00  154.48    0.00    0.00 -99.000 -99.000 -99.000   0.719   0.115   0.040   0.015   0.008   0.005   0.003   0.000   0.000
 2012 207    55  21.70  33.50  24.20 -99.000   6.303   0.000   6.303   0.839   0.000   0.839   0.000   0.000  390.94  155.32    0.00  155.32    0.00    0.00 -99.000 -99.000 -99.000   0.654   0.114   0.040   0.015   0.008   0.005   0.003   0.000   0.000
 2012 208    56  23.00  33.10  24.40 -99.000   6.641   0.000   6.641   0.780   0.000   0.780   0.000   0.000  397.58  156.10    0.00  156.10    0.00    0.00 -99.000 -99.000 -99.000   0.595   0.114   0.040   0.015   0.008   0.005   0.003   0.000   0.000
 2012 209    57  19.50  31.70  24.80 -99.000   5.549   0.000   5.549   0.725   0.000   0.725   0.000   0.000  403.13  156.83    0.00  156.83    0.00    0.00 -99.000 -99.000 -99.000   0.542   0.113   0.040   0.015   0.008   0.005   0.003   0.000   0.000
 2012 210    58  16.80  28.30  24.80 -99.000   4.600   0.000   4.600   0.766   0.000   0.766   0.000   0.000  407.73  157.59    0.00  157.59    0.00    0.00 -99.000 -99.000 -99.000   0.583   0.112   0.040   0.015   0.008   0.005   0.003   0.000   0.000
 2012 211    59  16.60  31.10  24.10 -99.000   4.691   0.009   4.682   4.691   0.009   4.682   0.000   0.000  412.42  162.28    0.01  162.27    0.00    0.00 -99.000 -99.000 -99.000   1.156   0.901   0.831   0.582   0.451   0.435   0.326   0.001   0.157
 2012 212    60   9.80  30.80  24.60 -99.000   2.852   0.007   2.844   2.852   0.007   2.844   0.000   0.000  415.27  165.13    0.02  165.12    0.00    0.00 -99.000 -99.000 -99.000   0.749   0.538   0.495   0.345   0.268   0.257   0.191   0.001   0.262
 2012 213    61  21.90  31.50  24.30 -99.000   6.339   0.051   6.319   5.878   0.051   5.827   0.000   0.000  421.61  171.01    0.07  170.95    0.00    0.00 -99.000 -99.000 -99.000   1.460   1.104   1.028   0.721   0.571   0.543   0.400   0.005   0.261
 2012 214    62  16.60  29.90  24.40 -99.000   4.691   0.046   4.673   1.069   0.046   1.023   0.000   0.000  426.30  172.08    0.11  171.97    0.00    0.00 -99.000 -99.000 -99.000   0.836   0.117   0.040   0.015   0.008   0.005   0.003   0.005   0.261
 2012 215    63  22.70  31.10  23.50 -99.000   6.427   0.074   6.398   1.018   0.074   0.944   0.000   0.000  432.73  173.10    0.19  172.91    0.00    0.00 -99.000 -99.000 -99.000   0.758   0.116   0.040   0.015   0.008   0.005   0.003   0.007   0.202
 2012 216    64  18.10  29.50  24.00 -99.000   5.036   0.068   5.009   1.098   0.068   1.030   0.000   0.000  437.77  174.20    0.25  173.94    0.00    0.00 -99.000 -99.000 -99.000   0.844   0.116   0.040   0.015   0.008   0.005   0.003   0.007   0.165
 2012 217    65  17.80  31.60  24.20 -99.000   5.134   0.031   5.102   5.134   0.031   5.102   0.000   0.000  442.90  179.33    0.29  179.05    0.00    0.00 -99.000 -99.000 -99.000   1.369   1.009   0.876   0.603   0.472   0.446   0.327   0.003   0.263
 2012 218    66  18.80  29.80  24.20 -99.000   5.384   0.037   5.346   5.383   0.037   5.346   0.000   0.000  448.28  184.71    0.32  184.39    0.00    0.00 -99.000 -99.000 -99.000   1.477   1.102   0.913   0.616   0.475   0.447   0.316   0.004   0.264
 2012 219    67  19.80  30.20  23.00 -99.000   5.642   0.044   5.596   5.641   0.044   5.596   0.000   0.000  453.93  190.36    0.37  189.99    0.00    0.00 -99.000 -99.000 -99.000   1.418   1.083   0.981   0.678   0.530   0.530   0.378   0.004   0.266
 2012 220    68  16.10  30.40  24.50 -99.000   4.587   0.041   4.545   4.586   0.041   4.545   0.000   0.000  458.51  194.94    0.41  194.53    0.00    0.00 -99.000 -99.000 -99.000   1.056   0.863   0.813   0.567   0.446   0.462   0.339   0.004   0.269
 2012 221    69  24.00  31.60  24.20 -99.000   6.870   0.197   6.792   6.182   0.197   5.985   0.000   0.000  465.38  201.12    0.60  200.52    0.00    0.00 -99.000 -99.000 -99.000   1.518   1.110   1.039   0.726   0.568   0.591   0.434   0.020   0.273
 2012 222    70  23.20  32.40  24.00 -99.000   6.775   0.219   6.688   6.518   0.219   6.300   0.000   0.000  472.16  207.64    0.82  206.82    0.00    0.00 -99.000 -99.000 -99.000   1.763   1.173   1.054   0.730   0.567   0.583   0.429   0.022   0.274
 2012 223    71  24.60  32.40  23.80 -99.000   7.188   0.261   7.083   6.657   0.261   6.396   0.000   0.000  479.35  214.30    1.08  213.21    0.00    0.00 -99.000 -99.000 -99.000   1.797   1.210   1.073   0.738   0.574   0.580   0.424   0.026   0.277
 2012 224    72  24.70  32.50  23.40 -99.000   7.198   0.296   7.080   6.435   0.296   6.139   0.000   0.000  486.54  220.73    1.38  219.35    0.00    0.00 -99.000 -99.000 -99.000   1.612   1.152   1.063   0.737   0.576   0.579   0.419   0.030   0.280
 2012 225    73  19.00  29.50  24.20 -99.000   5.339   0.097   5.241   5.337   0.097   5.241   0.000   0.000  491.88  226.07    1.48  224.59    0.00    0.00 -99.000 -99.000 -99.000   1.404   0.979   0.899   0.625   0.490   0.492   0.353   0.010   0.284
 2012 226    74  20.80  29.30  24.80 -99.000   5.925   0.119   5.804   5.924   0.119   5.804   0.000   0.000  497.81  231.99    1.60  230.40    0.00    0.00 -99.000 -99.000 -99.000   1.647   1.097   0.972   0.670   0.523   0.525   0.371   0.012   0.288
 2012 227    75  15.30  30.40  24.20 -99.000   4.383   0.098   4.283   4.381   0.098   4.283   0.000   0.000  502.19  236.38    1.69  234.68    0.00    0.00 -99.000 -99.000 -99.000   1.093   0.808   0.745   0.518   0.408   0.417   0.295   0.010   0.292
 2012 228    76  11.70  30.10  24.30 -99.000   3.307   0.202   3.226   1.323   0.202   1.121   0.000   0.000  505.50  237.70    1.90  235.80    0.00    0.00 -99.000 -99.000 -99.000   0.926   0.122   0.042   0.015   0.008   0.006   0.003   0.020   0.297
 2012 229    77  15.70  29.60  24.30 -99.000   4.392   0.115   4.274   4.389   0.115   4.274   0.000   0.000  509.89  242.09    2.01  240.08    0.00    0.00 -99.000 -99.000 -99.000   1.080   0.848   0.742   0.508   0.396   0.409   0.292   0.012   0.302
 2012 230    78  16.00  28.90  24.40 -99.000   4.520   0.128   4.388   4.517   0.128   4.388   0.000   0.000  514.41  246.60    2.14  244.47    0.00    0.00 -99.000 -99.000 -99.000   1.182   0.842   0.754   0.514   0.398   0.406   0.293   0.013   0.306
 2012 231    79  16.90  28.10  23.80 -99.000   4.685   0.146   4.535   4.681   0.146   4.535   0.000   0.000  519.10  251.29    2.29  249.00    0.00    0.00 -99.000 -99.000 -99.000   1.119   0.847   0.789   0.550   0.432   0.447   0.351   0.015   0.311
 2012 232    80  19.80  30.90  23.10 -99.000   5.574   0.190   5.379   5.569   0.190   5.379   0.000   0.000  524.67  256.85    2.48  254.38    0.00    0.00 -99.000 -99.000 -99.000   1.262   0.993   0.945   0.663   0.522   0.541   0.452   0.019   0.318
 2012 233    81  21.20  32.10  23.80 -99.000   6.047   0.569   5.813   1.593   0.569   1.023   0.000   0.000  530.72  258.45    3.05  255.40    0.00    0.00 -99.000 -99.000 -99.000   0.834   0.116   0.041   0.015   0.008   0.006   0.003   0.057   0.325
 2012 234    82  17.20  30.20  24.90 -99.000   4.819   0.497   4.612   1.447   0.497   0.950   0.000   0.000  535.54  259.89    3.54  256.35    0.00    0.00 -99.000 -99.000 -99.000   0.764   0.114   0.041   0.015   0.008   0.006   0.003   0.050   0.262
 2012 235    83  20.40  30.00  24.40 -99.000   5.669   0.262   5.403   5.665   0.262   5.403   0.000   0.000  541.20  265.56    3.80  261.76    0.00    0.00 -99.000 -99.000 -99.000   1.338   0.972   0.934   0.653   0.517   0.538   0.450   0.026   0.256
 2012 236    84  22.80  30.00  24.80 -99.000   6.475   0.480   6.139   6.473   0.480   5.993   0.000   0.000  547.68  272.03    4.28  267.75    0.00    0.00 -99.000 -99.000 -99.000   1.545   1.088   1.023   0.703   0.559   0.584   0.490   0.048   0.354
 2012 237    85  15.30  30.40  23.60 -99.000   4.268   0.243   4.021   4.264   0.243   4.021   0.000   0.000  551.95  276.30    4.53  271.77    0.00    0.00 -99.000 -99.000 -99.000   1.077   0.731   0.683   0.458   0.366   0.384   0.322   0.024   0.367
 2012 238    86  18.50  29.80  24.40 -99.000   5.226   0.323   4.898   5.221   0.323   4.898   0.000   0.000  557.17  281.52    4.85  276.67    0.00    0.00 -99.000 -99.000 -99.000   1.285   0.903   0.845   0.564   0.443   0.465   0.392   0.032   0.382
 2012 239    87  19.20  29.60  23.90 -99.000   5.320   0.362   4.953   5.315   0.362   4.953   0.000   0.000  562.49  286.83    5.21  281.62    0.00    0.00 -99.000 -99.000 -99.000   1.330   0.934   0.845   0.573   0.434   0.454   0.383   0.036   0.395
 2012 240    88  18.90  29.80  22.60 -99.000   5.245   0.394   4.848   5.242   0.394   4.848   0.000   0.000  567.74  292.07    5.61  286.47    0.00    0.00 -99.000 -99.000 -99.000   1.247   0.915   0.838   0.579   0.444   0.448   0.377   0.039   0.411
 2012 241    89  19.90  29.20  24.10 -99.000   5.476   1.045   5.020   2.153   1.045   1.108   0.000   0.000  573.21  294.23    6.65  287.58    0.00    0.00 -99.000 -99.000 -99.000   0.914   0.122   0.041   0.015   0.008   0.005   0.003   0.104   0.429
 2012 242    90  22.30  29.70  24.20 -99.000   6.129   0.554   5.568   6.122   0.554   5.568   0.000   0.000  579.34  300.35    7.21  293.14    0.00    0.00 -99.000 -99.000 -99.000   1.444   1.035   0.958   0.666   0.521   0.512   0.431   0.055   0.448
 2012 243    91  20.80  30.30  24.20 -99.000   5.826   0.580   5.235   5.815   0.580   5.235   0.000   0.000  585.17  306.16    7.79  298.38    0.00    0.00 -99.000 -99.000 -99.000   1.483   0.988   0.872   0.601   0.464   0.450   0.378   0.058   0.470
 2012 244    92  18.60  29.20  24.40 -99.000   5.142   0.569   4.568   5.137   0.569   4.568   0.000   0.000  590.31  311.30    8.35  302.95    0.00    0.00 -99.000 -99.000 -99.000   1.163   0.866   0.791   0.549   0.429   0.427   0.344   0.057   0.497
 2012 245    93  22.20  30.00  24.10 -99.000   6.102   1.635   5.357   2.743   1.635   1.108   0.000   0.000  596.41  314.05    9.99  304.06    0.00    0.00 -99.000 -99.000 -99.000   0.913   0.123   0.042   0.015   0.008   0.005   0.003   0.164   0.524
 2012 246    94  20.90  29.80  24.40 -99.000   5.700   0.753   4.932   5.685   0.753   4.932   0.000   0.000  602.11  319.73   10.74  308.99    0.00    0.00 -99.000 -99.000 -99.000   1.261   0.932   0.850   0.588   0.462   0.473   0.367   0.075   0.543
 2012 247    95  20.90  29.90  24.00 -99.000   5.758   0.836   4.906   5.743   0.836   4.906   0.000   0.000  607.87  325.47   11.58  313.89    0.00    0.00 -99.000 -99.000 -99.000   1.259   0.913   0.850   0.586   0.461   0.475   0.362   0.084   0.585
 2012 248    96  22.10  30.20  22.90 -99.000   5.981   2.017   5.011   3.117   2.017   1.100   0.000   0.000  613.85  328.59   13.60  314.99    0.00    0.00 -99.000 -99.000 -99.000   0.908   0.119   0.042   0.015   0.008   0.006   0.003   0.202   0.621
 2012 249    97  15.80  30.70  23.40 -99.000   4.278   1.560   3.516   2.661   1.560   1.101   0.000   0.000  618.13  331.25   15.16  316.09    0.00    0.00 -99.000 -99.000 -99.000   0.911   0.118   0.041   0.015   0.008   0.006   0.003   0.156   0.637
 2012 250    98  17.10  30.70  24.60 -99.000   4.682   0.889   3.783   4.673   0.889   3.783   0.000   0.000  622.81  335.92   16.05  319.88    0.00    0.00 -99.000 -99.000 -99.000   1.024   0.688   0.640   0.440   0.348   0.368   0.276   0.089   0.702
 2012 251    99  24.90  31.00  24.70 -99.000   6.879   1.415   5.454   6.869   1.415   5.454   0.000   0.000  629.69  342.79   17.46  325.33    0.00    0.00 -99.000 -99.000 -99.000   1.553   0.996   0.910   0.618   0.481   0.512   0.385   0.142   0.737
 2012 252   100  24.50  30.50  24.80 -99.000   6.684   1.498   5.160   6.658   1.498   5.160   0.000   0.000  636.38  349.45   18.96  330.49    0.00    0.00 -99.000 -99.000 -99.000   1.425   0.997   0.873   0.590   0.450   0.471   0.354   0.150   0.773
 2012 253   101  12.80  28.80  24.90 -99.000   3.426   0.841   2.569   3.410   0.841   2.569   0.000   0.000  639.80  352.86   19.80  333.06    0.00    0.00 -99.000 -99.000 -99.000   0.652   0.494   0.447   0.309   0.238   0.247   0.183   0.084   0.824
 2012 254   102  22.20  30.40  23.30 -99.000   5.923   1.548   4.347   5.896   1.548   4.347   0.000   0.000  645.72  358.76   21.35  337.41    0.00    0.00 -99.000 -99.000 -99.000   1.140   0.861   0.741   0.506   0.394   0.408   0.297   0.155   0.887
 2012 255   103  19.30  30.80  23.10 -99.000   5.173   1.490   3.669   5.159   1.490   3.669   0.000   0.000  650.90  363.92   22.84  341.08    0.00    0.00 -99.000 -99.000 -99.000   0.934   0.707   0.642   0.439   0.340   0.350   0.257   0.149   0.935
 2012 256   104  21.40  29.00  24.50 -99.000   5.626   1.752   3.855   5.607   1.752   3.855   0.000   0.000  656.52  369.52   24.59  344.93    0.00    0.00 -99.000 -99.000 -99.000   0.941   0.719   0.677   0.475   0.372   0.384   0.287   0.175   0.988
 2012 257   105  23.60  31.40  24.30 -99.000   6.313   2.132   4.152   6.283   2.132   4.152   0.000   0.000  662.84  375.81   26.72  349.08    0.00    0.00 -99.000 -99.000 -99.000   1.092   0.761   0.706   0.494   0.388   0.403   0.307   0.213   1.036
 2012 258   106  21.10  30.80  23.20 -99.000   5.579   2.058   3.500   5.558   2.058   3.500   0.000   0.000  668.42  381.36   28.78  352.58    0.00    0.00 -99.000 -99.000 -99.000   0.980   0.655   0.579   0.399   0.312   0.324   0.250   0.206   1.092
 2012 259   107  21.90  29.60  24.40 -99.000   5.740   2.262   3.452   5.714   2.262   3.452   0.000   0.000  674.16  387.08   31.04  356.04    0.00    0.00 -99.000 -99.000 -99.000   0.892   0.650   0.594   0.409   0.319   0.330   0.258   0.226   1.153
 2012 260   108  20.70  27.60  23.90 -99.000   5.240   2.167   3.048   5.215   2.167   3.048   0.000   0.000  679.40  392.29   33.21  359.08    0.00    0.00 -99.000 -99.000 -99.000   0.793   0.594   0.521   0.356   0.276   0.284   0.225   0.217   1.214
 2012 261   109  18.20  30.40  23.20 -99.000   4.726   2.055   2.657   4.711   2.055   2.657   0.000   0.000  684.12  397.01   35.26  361.74    0.00    0.00 -99.000 -99.000 -99.000   0.717   0.504   0.451   0.308   0.238   0.243   0.196   0.205   1.280
 2012 262   110  11.90  29.90  23.90 -99.000   3.073   1.387   1.673   3.059   1.387   1.673   0.000   0.000  687.20  400.06   36.65  363.41    0.00    0.00 -99.000 -99.000 -99.000   0.442   0.307   0.283   0.198   0.154   0.158   0.130   0.139   1.347
 2012 263   111  22.80  32.80  24.20 -99.000   6.059   2.818   3.224   6.042   2.818   3.224   0.000   0.000  693.25  406.11   39.47  366.64    0.00    0.00 -99.000 -99.000 -99.000   0.802   0.590   0.555   0.388   0.306   0.318   0.265   0.282   1.410
 2012 264   112  22.90  31.20  24.40 -99.000   5.946   2.863   3.052   5.915   2.863   3.052   0.000   0.000  699.20  412.02   42.33  369.69    0.00    0.00 -99.000 -99.000 -99.000   0.716   0.555   0.535   0.376   0.297   0.312   0.261   0.286   1.444
 2012 265   113  21.80  29.40  25.00 -99.000   5.546   2.780   2.739   5.519   2.780   2.739   0.000   0.000  704.75  417.54   45.11  372.43    0.00    0.00 -99.000 -99.000 -99.000   0.705   0.508   0.464   0.322   0.252   0.266   0.222   0.278   1.498
 2012 266   114  17.00  29.30  23.80 -99.000   4.296   2.238   2.041   4.279   2.238   2.041   0.000   0.000  709.04  421.82   47.35  374.47    0.00    0.00 -99.000 -99.000 -99.000   0.525   0.379   0.349   0.240   0.188   0.197   0.164   0.224   1.556
 2012 267   115  19.80  29.20  24.00 -99.000   4.972   2.669   2.285   4.954   2.669   2.285   0.000   0.000  714.01  426.77   50.02  376.75    0.00    0.00 -99.000 -99.000 -99.000   0.560   0.422   0.395   0.274   0.217   0.228   0.188   0.267   1.615
 2012 268   116  23.80  30.50  24.00 -99.000   6.031   4.920   2.668   6.001   4.920   1.081   0.000   0.000  720.05  432.77   54.94  377.83    0.00    0.00 -99.000 -99.000 -99.000   0.892   0.117   0.041   0.015   0.008   0.006   0.003   0.492   1.665
 2012 269   117  14.30  30.70  23.20 -99.000   3.592   2.526   1.522   3.579   2.526   1.053   0.000   0.000  723.64  436.35   57.46  378.89    0.00    0.00 -99.000 -99.000 -99.000   0.871   0.112   0.040   0.014   0.007   0.005   0.003   0.253   1.632
 2012 270   118  24.00  30.60  24.50 -99.000   6.075   4.984   2.499   6.051   4.984   1.067   0.000   0.000  729.71  442.40   62.45  379.96    0.00    0.00 -99.000 -99.000 -99.000   0.889   0.109   0.039   0.014   0.007   0.005   0.003   0.498   1.789
 2012 271   119  23.70  30.90  23.40 -99.000   5.945   4.986   2.342   5.914   4.986   0.928   0.000   0.000  735.66  448.32   67.43  380.88    0.00    0.00 -99.000 -99.000 -99.000   0.758   0.103   0.038   0.014   0.007   0.005   0.003   0.499   1.740
 2012 272   120  24.50  31.00  23.40 -99.000   6.129   5.256   2.313   6.079   5.256   0.824   0.000   0.000  741.79  454.40   72.69  381.71    0.00    0.00 -99.000 -99.000 -99.000   0.662   0.096   0.036   0.013   0.007   0.005   0.003   0.526   1.545
 2012 273   121  23.40  30.90  23.70 -99.000   5.842   4.802   2.111   5.817   4.802   1.015   0.000   0.000  747.63  460.21   77.49  382.72    0.00    0.00 -99.000 -99.000 -99.000   0.854   0.098   0.035   0.013   0.007   0.005   0.003   0.480   1.513
 2012 274   122  18.00  31.40  24.20 -99.000   4.544   2.947   1.576   4.522   2.947   1.575   0.000   0.000  752.17  464.74   80.44  384.30    0.00    0.00 -99.000 -99.000 -99.000   0.481   0.280   0.233   0.163   0.130   0.158   0.130   0.295   1.639
 2012 275   123  18.00  30.00  24.40 -99.000   4.481   2.956   1.503   4.459   2.956   1.503   0.000   0.000  756.65  469.19   83.40  385.80    0.00    0.00 -99.000 -99.000 -99.000   0.454   0.288   0.218   0.152   0.121   0.148   0.122   0.296   1.496
 2012 276   124  20.90  30.30  24.10 -99.000   5.195   3.487   1.686   5.172   3.487   1.685   0.000   0.000  761.85  474.37   86.88  387.49    0.00    0.00 -99.000 -99.000 -99.000   0.503   0.332   0.248   0.167   0.133   0.165   0.136   0.349   1.437
 2012 277   125  16.50  33.70  22.60 -99.000   4.199   2.864   1.315   4.179   2.864   1.315   0.000   0.000  766.05  478.55   89.75  388.80    0.00    0.00 -99.000 -99.000 -99.000   0.388   0.261   0.198   0.130   0.103   0.129   0.106   0.286   1.454
 2012 278   126  13.80  32.00  21.50 -99.000   3.418   2.363   1.042   3.405   2.363   1.042   0.000   0.000  769.47  481.95   92.11  389.84    0.00    0.00 -99.000 -99.000 -99.000   0.297   0.211   0.159   0.104   0.083   0.103   0.086   0.236   1.457
 2012 279   127  22.30  32.30  22.60 -99.000   5.576   3.895   1.660   5.554   3.895   1.659   0.000   0.000  775.04  487.50   96.00  391.50    0.00    0.00 -99.000 -99.000 -99.000   0.493   0.335   0.250   0.161   0.128   0.160   0.132   0.389   1.393
 2012 280   128  20.00  30.00  24.90 -99.000   4.960   3.500   1.430   4.929   3.500   1.429   0.000   0.000  780.00  492.43   99.50  392.93    0.00    0.00 -99.000 -99.000 -99.000   0.452   0.283   0.216   0.132   0.105   0.132   0.109   0.350   1.444
 2012 281   129  19.00  31.20  23.50 -99.000   4.722   3.370   1.322   4.691   3.370   1.321   0.000   0.000  784.72  497.12  102.87  394.25    0.00    0.00 -99.000 -99.000 -99.000   0.384   0.268   0.214   0.126   0.100   0.125   0.104   0.337   1.588
 2012 282   130  17.60  29.50  23.50 -99.000   4.285   3.089   1.167   4.255   3.089   1.166   0.000   0.000  789.01  501.38  105.96  395.42    0.00    0.00 -99.000 -99.000 -99.000   0.338   0.235   0.190   0.111   0.089   0.111   0.092   0.309   1.567
 2012 283   131  22.80  30.10  23.50 -99.000   5.584   4.073   1.480   5.552   4.073   1.479   0.000   0.000  794.59  506.93  110.03  396.90    0.00    0.00 -99.000 -99.000 -99.000   0.422   0.301   0.238   0.143   0.114   0.142   0.118   0.407   1.471
 2012 284   132  20.50  29.90  23.20 -99.000   4.990   3.909   1.281   4.968   3.909   1.059   0.000   0.000  799.58  511.90  113.94  397.96    0.00    0.00 -99.000 -99.000 -99.000   0.892   0.111   0.032   0.011   0.005   0.005   0.003   0.391   1.230
 2012 285   133  22.00  30.80  23.40 -99.000   5.405   4.489   1.347   5.384   4.489   0.895   0.000   0.000  804.99  517.28  118.43  398.85    0.00    0.00 -99.000 -99.000 -99.000   0.738   0.102   0.032   0.010   0.005   0.005   0.003   0.449   1.003
 2012 286   134  20.80  30.80  23.70 -99.000   5.114   4.309   1.236   5.083   4.309   0.774   0.000   0.000  810.10  522.37  122.74  399.62    0.00    0.00 -99.000 -99.000 -99.000   0.631   0.089   0.031   0.010   0.005   0.005   0.003   0.431   0.475
 2012 287   135  23.30  32.10  22.40 -99.000   5.750   4.746   1.362   4.195   3.222   0.972   0.000   0.000  815.85  526.56  125.96  400.60    0.00    0.00 -99.000 -99.000 -99.000   0.831   0.089   0.029   0.010   0.005   0.004   0.003   0.322   0.322
 2012 288   136  21.50  33.10  22.40 -99.000   5.375   4.059   1.287   5.344   4.059   1.285   0.000   0.000  821.23  531.90  130.02  401.88    0.00    0.00 -99.000 -99.000 -99.000   0.403   0.224   0.192   0.129   0.103   0.127   0.106   0.406   0.607
 2012 289   137  21.60  30.50  23.30 -99.000   5.278   4.016   1.230   5.243   4.016   1.227   0.000   0.000  826.51  537.15  134.04  403.11    0.00    0.00 -99.000 -99.000 -99.000   0.394   0.225   0.176   0.120   0.095   0.118   0.099   0.402   0.505
 2012 290   138  18.60  30.20  23.00 -99.000   4.526   3.454   1.046   4.497   3.454   1.043   0.000   0.000  831.03  541.64  137.49  404.15    0.00    0.00 -99.000 -99.000 -99.000   0.326   0.207   0.147   0.100   0.080   0.099   0.083   0.345   0.939
 2012 291   139   9.00  31.60  23.50 -99.000   2.228   1.709   0.510   2.217   1.709   0.508   0.000   0.000  833.26  543.86  139.20  404.66    0.00    0.00 -99.000 -99.000 -99.000   0.436   0.048   0.013   0.005   0.002   0.002   0.001   0.171   0.688
 2012 292   140  22.60  33.00  22.50 -99.000   5.634   4.679   1.284   5.606   4.679   0.927   0.000   0.000  838.89  549.47  143.88  405.59    0.00    0.00 -99.000 -99.000 -99.000   0.787   0.092   0.027   0.010   0.005   0.004   0.003   0.468   0.501
 2012 293   141  22.10  33.30  22.30 -99.000   5.512   4.804   1.247   2.443   1.756   0.687   0.000   0.000  844.41  551.91  145.64  406.27    0.00    0.00 -99.000 -99.000 -99.000   0.556   0.083   0.027   0.010   0.005   0.004   0.003   0.176   0.180
 2012 294   142  14.90  31.90  24.00 -99.000   3.707   3.056   0.856   2.125   1.492   0.633   0.000   0.000  848.11  554.04  147.13  406.91    0.00    0.00 -99.000 -99.000 -99.000   0.505   0.080   0.026   0.009   0.005   0.004   0.003   0.149   0.149
 2012 295   143  20.90  31.60  22.00 -99.000   5.113   4.505   1.219   1.882   1.298   0.584   0.000   0.000  853.22  555.92  148.43  407.49    0.00    0.00 -99.000 -99.000 -99.000   0.459   0.078   0.026   0.009   0.005   0.004   0.002   0.130   0.130
 2012 296   144  18.10  29.60  21.60 -99.000   4.322   3.577   1.052   1.879   1.158   0.722   0.000   0.000  857.55  557.80  149.58  408.21    0.00    0.00 -99.000 -99.000 -99.000   0.599   0.076   0.026   0.009   0.005   0.004   0.002   0.116   0.116
 2012 297   145  19.10  31.70  23.50 -99.000   4.737   3.869   1.177   2.767   1.920   0.847   0.000   0.000  862.28  560.56  151.50  409.06    0.00    0.00 -99.000 -99.000 -99.000   0.726   0.074   0.026   0.009   0.005   0.004   0.002   0.192   0.192
 2012 298   146   9.40  29.90  24.90 -99.000   2.310   1.719   0.591   1.604   1.020   0.583   0.000   0.000  864.59  562.17  152.52  409.64    0.00    0.00 -99.000 -99.000 -99.000   0.484   0.061   0.021   0.008   0.004   0.003   0.002   0.102   0.102
 2012 299   147  18.00  31.20  23.80 -99.000   4.450   3.744   1.164   1.597   0.913   0.684   0.000   0.000  869.04  563.76  153.44  410.33    0.00    0.00 -99.000 -99.000 -99.000   0.566   0.072   0.025   0.009   0.005   0.004   0.002   0.091   0.091
 2012 300   148  20.30  30.70  23.60 -99.000   4.987   4.295   1.334   1.487   0.822   0.664   0.000   0.001  874.03  565.25  154.26  410.99    0.00    0.00 -99.000 -99.000 -99.000   0.548   0.071   0.025   0.009   0.005   0.004   0.002   0.082   0.086
 2012 301   149  15.40  30.30  23.10 -99.000   3.754   2.983   1.027   1.519   0.765   0.753   0.000   0.001  877.79  566.77  155.02  411.74    0.00    0.00 -99.000 -99.000 -99.000   0.639   0.070   0.025   0.009   0.005   0.004   0.002   0.076   0.076
 2012 302   150  17.20  31.00  21.80 -99.000   4.193   3.201   1.172   2.474   1.507   0.966   0.000   0.001  881.98  569.24  156.53  412.71    0.00    0.00 -99.000 -99.000 -99.000   0.851   0.070   0.025   0.009   0.005   0.004   0.002   0.151   0.151
 2012 303   151   9.40  29.50  22.30 -99.000   2.266   1.618   0.647   2.247   1.618   0.627   0.000   0.002  884.24  571.49  158.15  413.33    0.00    0.01 -99.000 -99.000 -99.000   0.551   0.046   0.016   0.006   0.003   0.003   0.002   0.162   0.349
 2012 304   152  16.90  28.80  22.00 -99.000   4.031   3.224   1.177   1.739   0.961   0.777   0.000   0.002  888.27  573.23  159.11  414.11    0.00    0.01 -99.000 -99.000 -99.000   0.664   0.069   0.024   0.009   0.005   0.004   0.002   0.096   0.096
 2012 305   153  20.80  33.40  21.00 -99.000   5.172   4.448   1.544   1.391   0.701   0.689   0.000   0.002  893.45  574.62  159.81  414.80    0.00    0.01 -99.000 -99.000 -99.000   0.576   0.069   0.024   0.009   0.005   0.004   0.002   0.070   0.070
 2012 306   154  21.60  32.80  21.10 -99.000   5.340   4.681   1.630   1.234   0.602   0.629   0.000   0.002  898.79  575.86  160.41  415.43    0.00    0.01 -99.000 -99.000 -99.000   0.518   0.068   0.024   0.009   0.005   0.004   0.002   0.060   0.063
 2012 307   155  21.40  32.50  23.10 -99.000   5.347   4.730   1.669   1.154   0.571   0.581   0.000   0.002  904.13  577.01  160.98  416.01    0.00    0.01 -99.000 -99.000 -99.000   0.471   0.067   0.024   0.009   0.004   0.004   0.002   0.057   0.057
 2012 308   156  21.10  33.40  22.70 -99.000   5.306   4.546   1.693   1.279   0.542   0.735   0.000   0.002  909.44  578.29  161.53  416.75    0.00    0.02 -99.000 -99.000 -99.000   0.626   0.066   0.024   0.009   0.004   0.004   0.002   0.054   0.054
 2012 309   157  20.00  32.90  22.90 -99.000   5.025   4.126   1.639   3.183   2.301   0.875   0.000   0.007  914.47  581.47  163.83  417.62    0.00    0.02 -99.000 -99.000 -99.000   0.766   0.066   0.024   0.009   0.004   0.004   0.002   0.230   0.230
 2012 310   158  21.40  34.60  23.80 -99.000   5.496   4.830   1.832   1.101   0.452   0.642   0.000   0.007  919.96  582.57  164.28  418.26    0.00    0.03 -99.000 -99.000 -99.000   0.534   0.065   0.024   0.009   0.004   0.004   0.002   0.045   0.052
 2012 311   159  20.70  33.30  23.60 -99.000   5.237   4.608   1.785   1.041   0.442   0.593   0.000   0.007  925.20  583.61  164.72  418.86    0.00    0.04 -99.000 -99.000 -99.000   0.486   0.065   0.023   0.009   0.004   0.004   0.002   0.044   0.044
 2012 312   160  20.60  33.50  20.70 -99.000   5.117   4.541   1.782   0.979   0.424   0.548   0.000   0.007  930.32  584.59  165.14  419.40    0.00    0.05 -99.000 -99.000 -99.000   0.441   0.064   0.023   0.009   0.004   0.004   0.002   0.042   0.042
 2012 313   161  21.70  33.00  21.60 -99.000   5.394   4.844   1.921   0.921   0.407   0.507   0.000   0.007  935.71  585.51  165.55  419.91    0.00    0.05 -99.000 -99.000 -99.000   0.401   0.064   0.023   0.009   0.004   0.004   0.002   0.041   0.041
 2012 314   162  20.80  32.70  20.10 -99.000   5.098   4.554   1.856   0.868   0.391   0.470   0.000   0.006  940.81  586.38  165.94  420.38    0.00    0.06 -99.000 -99.000 -99.000   0.365   0.064   0.023   0.008   0.004   0.004   0.002   0.039   0.039
 2012 315   163  12.40  26.30  19.50 -99.000   2.819   2.349   1.049   0.819   0.376   0.436   0.000   0.006  943.63  587.20  166.32  420.82    0.00    0.06 -99.000 -99.000 -99.000   0.331   0.063   0.023   0.008   0.004   0.004   0.002   0.038   0.038
 2012 316   164  13.90  27.10  18.60 -99.000   3.165   2.729   1.204   0.774   0.363   0.406   0.000   0.006  946.79  587.97  166.68  421.22    0.00    0.07 -99.000 -99.000 -99.000   0.301   0.063   0.023   0.008   0.004   0.004   0.002   0.036   0.036
 2012 317   165  13.80  28.80  20.10 -99.000   3.237   2.826   1.259   0.733   0.350   0.378   0.000   0.005  950.03  588.71  167.03  421.60    0.00    0.08 -99.000 -99.000 -99.000   0.274   0.062   0.023   0.008   0.004   0.004   0.002   0.035   0.035
 2012 318   166  12.70  30.00  20.80 -99.000   3.032   2.628   1.205   0.696   0.339   0.352   0.000   0.005  953.06  589.40  167.37  421.95    0.00    0.08 -99.000 -99.000 -99.000   0.249   0.062   0.023   0.008   0.004   0.004   0.002   0.034   0.034
 2012 319   167  20.30  33.20  21.80 -99.000   5.047   4.328   2.080   0.661   0.328   0.329   0.000   0.004  958.11  590.06  167.70  422.28    0.00    0.08 -99.000 -99.000 -99.000   0.226   0.062   0.023   0.008   0.004   0.004   0.002   0.033   0.033
 2012 320   168  21.00  33.20  22.50 -99.000   5.243   4.424   2.241   0.650   0.317   0.330   0.000   0.004  963.35  590.72  168.01  422.61    0.00    0.09 -99.000 -99.000 -99.000   0.227   0.061   0.023   0.008   0.004   0.004   0.002   0.032   0.032
 2012 321   169  19.80  32.70  21.90 -99.000   4.896   4.066   2.167   0.677   0.273   0.375   0.000   0.029  968.25  591.39  168.29  422.99    0.00    0.12 -99.000 -99.000 -99.000   0.273   0.061   0.023   0.008   0.004   0.004   0.002   0.027   0.031
 2012 322   170  18.10  32.10  22.40 -99.000   4.464   3.638   2.043   0.698   0.256   0.395   0.000   0.047  972.71  592.09  168.54  423.38    0.00    0.16 -99.000 -99.000 -99.000   0.293   0.061   0.022   0.008   0.004   0.004   0.002   0.026   0.026
 2012 323   171  20.40  33.90  21.40 -99.000   5.084   4.068   2.402   0.689   0.248   0.402   0.000   0.039  977.79  592.78  168.79  423.78    0.00    0.20 -99.000 -99.000 -99.000   0.300   0.060   0.022   0.008   0.004   0.004   0.002   0.025   0.025
 2012 324   172  19.30  34.10  21.00 -99.000   4.804   3.765   2.341   0.718   0.241   0.408   0.000   0.069  982.60  593.50  169.03  424.19    0.00    0.27 -99.000 -99.000 -99.000   0.307   0.060   0.022   0.008   0.004   0.004   0.002   0.024   0.024
 2012 325   173  21.80  33.70  18.70 -99.000   5.309   4.075   2.663   0.749   0.222   0.472   0.000   0.056  987.91  594.25  169.26  424.66    0.00    0.33 -99.000 -99.000 -99.000   0.371   0.060   0.022   0.008   0.004   0.004   0.002   0.022   0.023
 2012 326   174  20.60  32.20  19.80 -99.000   4.979   3.745   2.569   0.888   0.187   0.613   0.000   0.088  992.89  595.13  169.44  425.28    0.00    0.42 -99.000 -99.000 -99.000   0.514   0.059   0.022   0.008   0.004   0.004   0.002   0.019   0.019
 2012 327   175  20.40  32.80  20.80 -99.000   4.999   3.684   2.649   0.917   0.182   0.650   0.000   0.085  997.89  596.05  169.62  425.93    0.00    0.50 -99.000 -99.000 -99.000   0.550   0.059   0.022   0.008   0.004   0.004   0.002   0.018   0.022
 2012 328   176  20.90  33.10  21.40 -99.000   5.147   3.699   2.798   0.816   0.140   0.612   0.000   0.064   1003.    597.    170.    427.      0.      1. -99.000 -99.000 -99.000   0.513   0.059   0.022   0.008   0.004   0.004   0.002   0.014   0.018
 2012 329   177  18.20  33.90  21.70 -99.000   4.519   3.178   2.518   0.839   0.133   0.619   0.000   0.087   1008.    598.    170.    427.      0.      1. -99.000 -99.000 -99.000   0.520   0.058   0.022   0.008   0.004   0.004   0.002   0.013   0.013
 2012 330   178  19.80  34.00  21.10 -99.000   4.895   3.351   2.791   0.859   0.129   0.614   0.000   0.116   1012.    599.    170.    428.      0.      1. -99.000 -99.000 -99.000   0.515   0.058   0.022   0.008   0.004   0.004   0.002   0.013   0.015
 2012 331   179  18.40  34.00  22.60 -99.000   4.582   3.059   2.672   0.775   0.126   0.566   0.000   0.083   1017.    599.    170.    428.      0.      1. -99.000 -99.000 -99.000   0.468   0.058   0.022   0.008   0.004   0.004   0.002   0.013   0.013
 2012 332   180  21.30  34.20  19.50 -99.000   5.186   3.352   3.089   0.705   0.122   0.523   0.000   0.059   1022.    600.    170.    429.      0.      1. -99.000 -99.000 -99.000   0.426   0.057   0.022   0.008   0.004   0.004   0.002   0.012   0.012
 2012 333   181  20.00  32.50  18.10 -99.000   4.719   2.956   2.869   0.821   0.119   0.661   0.000   0.041   1027.    601.    170.    430.      0.      1. -99.000 -99.000 -99.000   0.563   0.057   0.022   0.008   0.004   0.004   0.002   0.012   0.012
 2012 334   182  17.80  32.50  17.50 -99.000   4.192   2.559   2.626   1.492   0.513   0.801   0.000   0.177   1031.    602.    171.    430.      0.      1. -99.000 -99.000 -99.000   0.705   0.057   0.022   0.008   0.004   0.003   0.002   0.051   0.051
 2012 335   183  19.40  30.10  20.10 -99.000   4.520   2.703   2.899   1.084   0.233   0.717   0.000   0.135   1036.    603.    171.    431.      0.      1. -99.000 -99.000 -99.000   0.620   0.056   0.022   0.008   0.004   0.003   0.002   0.023   0.023
 2012 336   184  21.20  34.80  19.80 -99.000   5.160   3.002   3.395   0.952   0.148   0.715   0.000   0.088   1041.    604.    171.    432.      0.      1. -99.000 -99.000 -99.000   0.619   0.056   0.022   0.008   0.004   0.003   0.002   0.015   0.015
 2012 337   185  19.70  33.90  21.60 -99.000   4.802   2.701   3.237   1.189   0.241   0.722   0.000   0.226   1046.    606.    172.    432.      0.      2. -99.000 -99.000 -99.000   0.626   0.056   0.022   0.008   0.004   0.003   0.002   0.024   0.024
 2012 338   186  19.30  34.40  17.80 -99.000   4.586   2.506   3.159   0.948   0.145   0.660   0.000   0.143   1050.    607.    172.    433.      0.      2. -99.000 -99.000 -99.000   0.564   0.055   0.022   0.008   0.004   0.003   0.002   0.015   0.015
 2012 339   187  19.00  34.60  19.80 -99.000   4.569   2.408   3.215   0.926   0.123   0.658   0.000   0.145   1055.    607.    172.    434.      0.      2. -99.000 -99.000 -99.000   0.563   0.055   0.022   0.008   0.004   0.003   0.002   0.012   0.012
 2012 340   188  20.30  33.10  18.70 -99.000   4.755   2.417   3.413   1.082   0.140   0.693   0.000   0.250   1060.    609.    172.    434.      0.      2. -99.000 -99.000 -99.000   0.598   0.055   0.022   0.008   0.004   0.003   0.002   0.014   0.014
 2012 341   189  21.00  33.60  16.00 -99.000   4.837   2.385   3.535   1.091   0.160   0.710   0.000   0.222   1064.    610.    172.    435.      0.      2. -99.000 -99.000 -99.000   0.615   0.054   0.022   0.008   0.004   0.003   0.002   0.016   0.016
 2012 342   190  20.60  34.40  17.50 -99.000   4.820   2.301   3.584   1.136   0.162   0.681   0.000   0.293   1069.    611.    172.    436.      0.      3. -99.000 -99.000 -99.000   0.587   0.054   0.022   0.008   0.004   0.003   0.002   0.016   0.016
 2012 343   191  19.00  34.80  17.50 -99.000   4.444   2.052   3.357   0.886   0.095   0.621   0.000   0.170   1074.    612.    172.    436.      0.      3. -99.000 -99.000 -99.000   0.528   0.054   0.022   0.008   0.004   0.003   0.002   0.009   0.012
 2012 344   192  19.70  33.70  18.60 -99.000   4.568   2.034   3.503   0.763   0.093   0.573   0.000   0.097   1078.    612.    172.    437.      0.      3. -99.000 -99.000 -99.000   0.480   0.053   0.022   0.008   0.004   0.003   0.002   0.009   0.009
 2012 345   193  16.40  33.70  17.40 -99.000   3.752   1.612   2.919   0.675   0.091   0.529   0.000   0.055   1082.    613.    173.    438.      0.      3. -99.000 -99.000 -99.000   0.436   0.053   0.022   0.008   0.004   0.003   0.002   0.009   0.009
 2012 346   194  19.60  34.00  17.10 -99.000   4.466   1.853   3.522   0.669   0.089   0.550   0.000   0.030   1086.    614.    173.    438.      0.      3. -99.000 -99.000 -99.000   0.457   0.053   0.022   0.008   0.004   0.003   0.002   0.009   0.009
 2012 347   195  19.40  33.90  18.60 -99.000   4.450   1.782   3.554   1.036   0.087   0.569   0.000   0.380   1091.    615.    173.    439.      0.      3. -99.000 -99.000 -99.000   0.477   0.053   0.022   0.008   0.004   0.003   0.002   0.009   0.009
 2012 348   196  14.80  31.80  18.60 -99.000   3.303   1.274   2.669   0.812   0.086   0.525   0.000   0.201   1094.    616.    173.    439.      0.      4. -99.000 -99.000 -99.000   0.433   0.052   0.022   0.008   0.004   0.003   0.002   0.009   0.009
 2012 349   197  13.70  33.60  20.40 -99.000   3.141   1.167   2.566   0.674   0.084   0.485   0.000   0.105   1097.    616.    173.    440.      0.      4. -99.000 -99.000 -99.000   0.394   0.052   0.022   0.008   0.004   0.003   0.002   0.008   0.008
 2012 350   198  15.00  33.30  20.60 -99.000   3.415   1.222   2.819   0.585   0.082   0.449   0.000   0.053   1101.    617.    173.    440.      0.      4. -99.000 -99.000 -99.000   0.358   0.052   0.022   0.008   0.004   0.003   0.002   0.008   0.008
 2012 351   199  14.30  33.60  20.70 -99.000   3.251   1.120   2.710   0.629   0.081   0.521   0.000   0.027   1104.    617.    173.    441.      0.      4. -99.000 -99.000 -99.000   0.431   0.051   0.022   0.008   0.004   0.003   0.002   0.008   0.008
 2012 352   200  19.40  35.20  21.00 -99.000   4.527   1.498   3.809   1.150   0.079   0.587   0.000   0.484   1108.    619.    173.    441.      0.      4. -99.000 -99.000 -99.000   0.497   0.051   0.022   0.008   0.004   0.003   0.002   0.008   0.008
 2012 353   201  18.90  33.10  19.80 -99.000   4.220   1.333   3.582   0.850   0.078   0.542   0.000   0.231   1113.    619.    173.    442.      0.      4. -99.000 -99.000 -99.000   0.451   0.051   0.022   0.008   0.004   0.003   0.002   0.008   0.008
 2012 354   202  17.80  33.60  19.30 -99.000   3.961   1.202   3.391   0.685   0.076   0.500   0.000   0.109   1117.    620.    173.    442.      0.      5. -99.000 -99.000 -99.000   0.410   0.050   0.022   0.008   0.004   0.003   0.002   0.008   0.008
 2012 355   203   9.50  29.40  18.90 -99.000   2.007   0.609   1.718   0.587   0.075   0.462   0.000   0.050   1119.    621.    173.    443.      0.      5. -99.000 -99.000 -99.000   0.373   0.050   0.022   0.008   0.004   0.003   0.002   0.007   0.007
 2012 356   204  16.10  28.80  19.20 -99.000   3.385   1.029   2.898   0.524   0.073   0.428   0.000   0.022   1122.    621.    173.    443.      0.      5. -99.000 -99.000 -99.000   0.339   0.050   0.022   0.008   0.004   0.003   0.002   0.007   0.007
