*WATER BALANCE OUTPUT FILE

*DSSAT Cropping System Model Ver. 4.8.2.000 -release  APR 17, 2025 20:30:48

*RUN   1        : F1 NE 4                   RICER048 CRDA1201    1
 MODEL          : RICER048 - Rice
 EXPERIMENT     : CRDA1201 WH ESSAI VARIETE DAROU PAKA 2012
 DATA PATH      :
 TREATMENT  1   : F1 NE 4                   RICER048
  

!     WATER BALANCE PARAMETERS
!     ========================                 --mm--

!     Soil H20 (start) on Year/day 2012/153    281.50
!     Soil H20 (final) on Year/day 2012/356    174.90
!     Effective Irrigation                       0.00
!     Precipitation                            529.90
!     Water added with new mulch                 0.00
!     Net lateral flow                           0.00
!     Drainage                                  11.13
!     Tiledrain flow                             0.00
!     Runoff                                     4.06
!     Mulch evaporation                          4.64
!     Soil Evaporation                         443.22
!     Transpiration                            173.43
!     Total evapotranspiration                 616.65
!     Total potential evapotranspiration      1122.06

!     Initial mulch water content                0.00
!     Final mulch water content                  0.02

!     Final Balance                            -0.000

