*SOM C DAILY OUTPUT FILE

*DSSAT Cropping System Model Ver. 4.8.2.000 -release  APR 17, 2025 20:30:48

*RUN   1        : F1 NE 4                   RICER048 CRDA1201    1
 MODEL          : RICER048 - Rice
 EXPERIMENT     : CRDA1201 WH ESSAI VARIETE DAROU PAKA 2012
 DATA PATH      :
 TREATMENT  1   : F1 NE 4                   RICER048
  
!                                                                                                                                                                                                                                                                                                                                                                                                                                                                                    Cumul.
!               <---- SOM C in top layers ----> <- SOM + LIT C in top layers -> <------------ Total Soil Organic Carbon (SOM + LIT) ------------> <--------- Active Soil Organic Carbon (SOM1) ---------> <---- Intermediate Soil Organic C (SOM2) -----> <------- Passive Soil Organic C (SOM3) -------> <------------------ Litter Carbon --------------------> <-------------- Metabolic Litter Carbon --------------> <------------- Structural Litter Carbon -------------->  Resid.  <-Accum. CO2->
!               20cm-kg  20cm-% 40cm-kg  40cm-% 20cm-kg  20cm-% 40cm-kg  40cm-%     Total Surface    Soil     0-5    5-15   15-30   30-45  45-100 Surface    Soil     0-5    5-15   15-30   30-45  45-100    Soil     0-5    5-15   15-30   30-45  45-100    Soil     0-5    5-15   15-30   30-45  45-100 Surface    Soil     0-5    5-15   15-30   30-45  45-100 Surface    Soil     0-5    5-15   15-30   30-45  45-100 Surface    Soil     0-5    5-15   15-30   30-45  45-100 (kg/ha) Surface    Soil
@YEAR DOY   DAS  SCS20D  SC%20D  SCS40D  SC%40D  SLC20D  SL%20D  SLC40D  SL%40D      SOCD    SC0D    SCTD    SC1D    SC2D    SC3D    SC4D   SC5+D   S1C0D   S1CTD   S1C1D   S1C2D   S1C3D   S1C4D  S1C5+D   S2CTD   S2C1D   S2C2D   S2C3D   S2C4D  S2C5+D   S3CTD   S3C1D   S3C2D   S3C3D   S3C4D  S3C5+D    LC0D    LCTD    LC1D    LC2D    LC3D    LC4D   LC5+D   MEC0D   MECTD   MEC1D   MEC2D   MEC3D   MEC4D  MEC5+D   STC0D   STCTD   STC1D   STC2D   STC3D   STC4D  STC5+D    RESC   CO20C   CO2SC
 2012 152     0   23016   0.724   15878   0.499   23055   0.725   15900   0.500     74175       0   74175    6360   12720   11925   11925   31245       0     127      24      48      12      12      31    2420     457     918     226     226     593   71544    5867   11734   11667   11674   30602       0      84      12      20      20      13      19       0      69      10      16      17      11      15       0      15       2       4       4       2       3       0       0       0
 2012 153     1   23015   0.724   15878   0.499   23052   0.725   15899   0.500     74169       0   74169    6359   12718   11924   11924   31244       0     129      24      48      12      12      32    2419     456     917     226     226     593   71542    5867   11734   11666   11674   30601       0      79      12      18      19      12      17       0      64       9      15      15      10      14       0      15       2       4       4       2       3       0       0       6
 2012 154     2   23015   0.724   15878   0.499   23049   0.725   15898   0.500     74163       0   74163    6358   12717   11923   11923   31242       0     130      24      48      13      13      32    2418     456     917     226     226     593   71541    5867   11734   11666   11673   30601       0      74      11      17      18      11      16       0      59       9      14      14       9      13       0      15       2       4       4       2       3       0       0      12
 2012 155     3   23014   0.724   15878   0.499   23046   0.725   15897   0.500     74158       0   74158    6357   12715   11922   11923   31241       0     131      24      48      13      13      32    2418     456     917     226     226     593   71540    5867   11734   11666   11673   30600       0      70      10      16      17      11      15       0      54       8      13      13       8      12       0      15       2       4       4       2       3       0       0      17
 2012 156     4   23013   0.724   15878   0.499   23043   0.725   15895   0.500     74152       0   74152    6357   12713   11921   11922   31240       0     131      24      48      14      13      32    2417     456     916     226     226     593   71539    5867   11733   11666   11673   30600       0      65      10      15      16      10      15       0      50       7      12      12       8      11       0      15       2       4       4       2       3       0       0      23
 2012 157     5   23012   0.724   15878   0.499   23041   0.725   15894   0.500     74147       0   74147    6356   12712   11920   11921   31238       0     132      24      48      14      13      33    2416     456     916     226     226     592   71537    5867   11733   11665   11673   30599       0      62       9      14      15       9      14       0      47       7      11      11       7      10       0      15       2       4       4       2       3       0       0      28
 2012 158     6   23011   0.724   15878   0.499   23038   0.724   15893   0.500     74142       0   74142    6355   12710   11919   11921   31237       0     133      24      48      14      13      33    2415     456     916     226     226     592   71536    5867   11733   11665   11673   30599       0      58       9      13      14       9      13       0      43       6      10      10       7      10       0      15       2       4       4       2       3       0       0      33
 2012 159     7   23010   0.724   15878   0.499   23035   0.724   15892   0.500     74137       0   74137    6354   12708   11919   11920   31236       0     133      24      48      15      14      33    2414     455     915     226     226     592   71535    5866   11733   11665   11672   30598       0      55       8      13      13       8      12       0      40       6       9       9       6       9       0      15       2       4       4       2       3       0       0      38
 2012 160     8   23009   0.724   15878   0.499   23033   0.724   15891   0.500     74132       0   74132    6353   12707   11918   11919   31235       0     133      24      47      15      14      33    2414     455     915     226     226     592   71534    5866   11733   11665   11672   30598       0      52       8      12      12       8      12       0      37       6       8       9       6       8       0      15       2       4       4       2       3       0       0      43
 2012 161     9   23008   0.724   15878   0.499   23031   0.724   15891   0.500     74128       0   74128    6353   12706   11917   11919   31233       0     133      24      47      15      14      33    2413     455     915     226     226     592   71533    5866   11732   11665   11672   30597       0      49       7      11      12       8      11       0      34       5       8       8       5       8       0      15       2       4       4       2       3       0       0      47
 2012 162    10   23007   0.723   15878   0.499   23029   0.724   15890   0.500     74123       0   74123    6352   12704   11916   11918   31232       0     133      24      47      15      14      33    2412     455     914     226     226     591   71531    5866   11732   11664   11672   30597       0      47       7      11      11       7      11       0      32       5       7       7       5       7       0      15       2       4       4       2       3       0       0      52
 2012 163    11   23006   0.723   15877   0.499   23026   0.724   15889   0.500     74119       0   74119    6352   12703   11916   11918   31231       0     133      24      47      15      14      33    2411     455     914     226     226     591   71530    5866   11732   11664   11672   30596       0      44       7      10      11       7      10       0      29       5       7       7       4       7       0      15       2       4       4       2       3       0       0      56
 2012 164    12   23005   0.723   15877   0.499   23024   0.724   15888   0.500     74115       0   74115    6351   12702   11915   11917   31230       0     133      24      46      15      14      33    2411     455     914     225     226     591   71529    5866   11732   11664   11671   30596       0      42       6      10      10       6      10       0      27       4       6       6       4       6       0      15       2       4       4       2       3       0       0      60
 2012 165    13   23004   0.723   15877   0.499   23022   0.724   15887   0.500     74112       0   74112    6350   12701   11914   11917   31229       0     133      24      46      16      14      33    2410     455     913     225     225     591   71528    5866   11732   11664   11671   30596       0      41       6       9      10       6       9       0      26       4       6       6       4       6       0      15       2       4       4       2       3       0       0      63
 2012 166    14   23003   0.723   15877   0.499   23021   0.724   15887   0.500     74108       0   74108    6350   12699   11914   11916   31228       0     133      24      46      16      14      33    2409     455     913     225     225     591   71527    5866   11731   11664   11671   30595       0      39       6       9       9       6       9       0      24       4       5       6       4       6       0      15       2       4       4       2       3       0       0      67
 2012 167    15   23002   0.723   15877   0.499   23019   0.724   15886   0.500     74105       0   74105    6350   12698   11913   11916   31227       0     132      24      46      16      14      33    2409     454     913     225     225     591   71526    5866   11731   11664   11671   30595       0      37       6       9       9       6       9       0      22       4       5       5       3       5       0      15       2       4       4       2       3       0       0      70
 2012 168    16   23001   0.723   15876   0.499   23018   0.724   15886   0.500     74101       0   74101    6349   12697   11913   11915   31226       0     132      23      45      16      14      33    2408     454     913     225     225     591   71525    5866   11731   11663   11671   30594       0      36       6       8       8       5       8       0      21       4       5       5       3       5       0      15       2       4       4       2       3       0       0      74
 2012 169    17   23000   0.723   15876   0.499   23016   0.724   15885   0.500     74098       0   74098    6349   12696   11912   11915   31226       0     132      23      45      16      14      33    2407     454     912     225     225     590   71524    5866   11731   11663   11670   30594       0      35       6       8       8       5       8       0      20       3       4       5       3       5       0      15       2       3       4       2       3       0       0      77
 2012 170    18   22998   0.723   15876   0.499   23014   0.724   15884   0.500     74094       0   74094    6348   12695   11912   11915   31225       0     131      23      45      16      14      33    2407     454     912     225     225     590   71523    5866   11731   11663   11670   30593       0      33       5       8       8       5       8       0      18       3       4       4       3       4       0      15       2       3       4       2       3       0       0      81
 2012 171    19   22997   0.723   15875   0.499   23012   0.724   15884   0.499     74091       0   74091    6348   12694   11911   11914   31224       0     131      23      44      16      14      33    2406     454     912     225     225     590   71522    5866   11731   11663   11670   30593       0      32       5       7       7       5       7       0      17       3       4       4       3       4       0      15       2       3       4       2       3       0       0      84
 2012 172    20   22996   0.723   15875   0.499   23010   0.724   15883   0.499     74087       0   74087    6347   12693   11911   11914   31223       0     130      23      44      16      14      33    2405     454     911     225     225     590   71521    5865   11730   11663   11670   30592       0      31       5       7       7       5       7       0      16       3       3       4       2       4       0      15       2       3       4       2       3       0       0      88
 2012 173    21   22995   0.723   15875   0.499   23009   0.724   15882   0.499     74084       0   74084    6347   12692   11910   11913   31222       0     130      23      44      16      14      33    2405     454     911     225     225     590   71520    5865   11730   11662   11670   30592       0      30       5       7       7       5       7       0      15       3       3       3       2       4       0      15       2       3       4       2       3       0       0      91
 2012 174    22   22993   0.723   15874   0.499   23007   0.723   15882   0.499     74081       0   74081    6346   12690   11910   11913   31221       0     130      23      44      16      14      33    2404     454     911     225     225     590   71519    5865   11730   11662   11670   30592       0      29       5       6       7       4       7       0      14       2       3       3       2       3       0      15       2       3       4       2       3       0       0      94
 2012 175    23   22992   0.723   15874   0.499   23005   0.723   15881   0.499     74078       0   74078    6346   12689   11909   11913   31221       0     129      23      43      16      14      33    2403     453     910     225     225     590   71518    5865   11730   11662   11669   30591       0      28       4       6       7       4       6       0      13       2       3       3       2       3       0      15       2       3       4       2       3       0       0      97
 2012 176    24   22991   0.723   15874   0.499   23003   0.723   15881   0.499     74075       0   74075    6345   12689   11909   11912   31220       0     128      22      43      16      14      33    2403     453     910     225     225     589   71517    5865   11730   11662   11669   30591       0      27       4       6       6       4       6       0      12       2       3       3       2       3       0      15       2       3       4       2       3       0       0     100
 2012 177    25   22990   0.723   15874   0.499   23002   0.723   15880   0.499     74072       0   74072    6345   12688   11909   11912   31219       0     128      22      43      16      14      33    2402     453     910     225     225     589   71516    5865   11729   11662   11669   30591       0      26       4       6       6       4       6       0      12       2       2       3       2       3       0      15       2       3       4       2       3       0       0     103
 2012 178    26   22989   0.723   15873   0.499   23001   0.723   15880   0.499     74069       0   74069    6345   12687   11908   11912   31218       0     128      22      42      16      14      33    2401     453     909     225     225     589   71515    5865   11729   11661   11669   30590       0      26       4       6       6       4       6       0      11       2       2       2       2       3       0      15       2       3       4       2       3       0       0     106
 2012 179    27   22988   0.723   15873   0.499   22999   0.723   15879   0.499     74067       0   74067    6344   12686   11908   11911   31218       0     127      22      42      16      14      33    2401     453     909     225     225     589   71514    5865   11729   11661   11669   30590       0      25       4       6       6       4       6       0      10       2       2       2       2       3       0      15       2       3       4       2       3       0       0     108
 2012 180    28   22987   0.723   15873   0.499   22998   0.723   15879   0.499     74065       0   74065    6344   12685   11907   11911   31217       0     127      22      42      16      14      33    2400     453     909     225     225     589   71513    5865   11729   11661   11669   30589       0      25       4       5       6       4       6       0      10       2       2       2       1       2       0      15       2       3       4       2       3       0       0     110
 2012 181    29   22986   0.723   15872   0.499   22997   0.723   15879   0.499     74062       0   74062    6344   12684   11907   11911   31216       0     126      22      42      16      14      33    2400     453     908     225     225     589   71512    5865   11729   11661   11669   30589       0      24       4       5       6       4       6       0       9       2       2       2       1       2       0      15       2       3       4       2       3       0       0     113
 2012 182    30   22984   0.723   15872   0.499   22995   0.723   15878   0.499     74059       0   74059    6343   12683   11907   11911   31216       0     126      22      41      16      14      33    2399     453     908     225     225     589   71511    5865   11729   11661   11668   30589       0      24       4       5       5       4       5       0       9       2       2       2       1       2       0      15       2       3       4       2       3       0       0     116
 2012 183    31   22983   0.723   15872   0.499   22994   0.723   15878   0.499     74057       0   74057    6343   12682   11906   11910   31215       0     125      22      41      16      14      33    2398     452     908     225     225     589   71511    5865   11729   11661   11668   30588       0      23       4       5       5       4       5       0       8       2       2       2       1       2       0      15       2       3       4       2       3       0       0     118
 2012 184    32   22320   0.732   15871   0.499   22331   0.733   15877   0.499     74054       0   74054    6342   12682   11906   11910   31215       0     124      21      41      15      14      33    2398     453     907     225     225     588   71510    5864   11729   11660   11668   30588       0      23       3       5       5       3       5       0       8       1       2       2       1       2       0      15       2       4       4       2       3       0       0     121
 2012 185    33   22503   0.730   15871   0.499   22513   0.730   15877   0.499     74051       0   74051    6341   12681   11906   11910   31214       0     124      21      41      15      14      33    2397     453     907     225     225     588   71509    5864   11728   11660   11668   30588       0      22       3       5       5       3       5       0       7       1       2       2       1       2       0      15       2       4       4       2       3       0       0     124
 2012 186    34   22502   0.730   15871   0.499   22512   0.730   15876   0.499     74049       0   74049    6340   12680   11905   11909   31213       0     123      21      41      15      14      33    2396     452     906     225     225     588   71508    5864   11728   11660   11668   30587       0      22       3       5       5       3       5       0       7       1       2       1       1       2       0      15       2       4       4       2       3       0       0     126
 2012 187    35   22501   0.729   15870   0.499   22510   0.730   15876   0.499     74046       0   74046    6340   12680   11905   11909   31213       0     122      20      40      15      14      33    2395     452     906     225     224     588   71507    5864   11728   11660   11668   30587       0      21       3       5       5       3       5       0       7       1       1       1       1       2       0      15       2       4       4       2       3       0       0     129
 2012 188    36   22499   0.729   15870   0.499   22509   0.730   15875   0.499     74043       0   74043    6339   12679   11904   11909   31212       0     122      20      40      15      14      33    2395     452     906     225     224     588   71506    5864   11728   11660   11667   30587       0      21       3       5       5       3       5       0       6       1       1       1       1       2       0      15       2       4       4       2       3       0       0     132
 2012 189    37   22498   0.729   15870   0.499   22507   0.730   15875   0.499     74040       0   74040    6338   12678   11904   11908   31212       0     121      20      40      15      14      32    2394     452     905     225     224     588   71505    5864   11728   11660   11667   30586       0      20       3       5       5       3       5       0       6       1       1       1       1       2       0      15       2       4       4       2       3       0       0     135
 2012 190    38   22497   0.729   15869   0.499   22506   0.730   15874   0.499     74038       0   74038    6338   12677   11904   11908   31211       0     121      20      40      15      14      32    2393     451     905     225     224     588   71504    5864   11728   11659   11667   30586       0      20       3       5       5       3       5       0       6       1       1       1       1       1       0      15       2       4       4       2       3       0       0     137
 2012 191    39   22496   0.729   15869   0.499   22505   0.730   15874   0.499     74035       0   74035    6338   12676   11903   11908   31210       0     120      20      39      15      14      32    2392     451     905     224     224     588   71503    5864   11727   11659   11667   30586       0      20       3       5       5       3       5       0       5       1       1       1       1       1       0      15       2       4       4       2       3       0       0     140
 2012 192    40   22495   0.729   15868   0.499   22503   0.730   15874   0.499     74033       0   74033    6337   12675   11903   11907   31210       0     119      20      39      15      14      32    2392     451     905     224     224     587   71502    5864   11727   11659   11667   30585       0      20       3       5       5       3       5       0       5       1       1       1       1       1       0      15       2       4       4       2       3       0       0     142
 2012 193    41   22493   0.729   15868   0.499   22502   0.730   15873   0.499     74030       0   74030    6337   12675   11903   11907   31209       0     119      20      39      15      13      32    2391     451     904     224     224     587   71501    5864   11727   11659   11667   30585       0      19       3       5       4       3       4       0       5       1       1       1       1       1       0      15       2       4       4       2       3       0       0     145
 2012 194    42   22493   0.729   15868   0.499   22501   0.730   15873   0.499     74028       0   74028    6337   12674   11902   11907   31208       0     118      19      39      15      13      32    2391     451     904     224     224     587   71500    5864   11727   11659   11666   30585       0      19       3       5       4       3       4       0       4       1       1       1       1       1       0      15       2       4       4       2       3       0       0     147
 2012 195    43   22492   0.729   15867   0.499   22500   0.729   15872   0.499     74026       0   74026    6336   12673   11902   11907   31208       0     118      19      38      15      13      32    2390     451     904     224     224     587   71499    5863   11727   11659   11666   30584       0      19       3       4       4       3       4       0       4       1       1       1       1       1       0      15       2       4       4       2       3       0       0     149
 2012 196    44   22608   0.727   15867   0.499   22616   0.728   15872   0.499     74024       0   74024    6336   12673   11902   11906   31207       0     118      19      38      15      13      32    2389     451     903     224     224     587   71499    5863   11727   11659   11666   30584       0      19       3       4       4       3       4       0       4       1       1       1       1       1       0      15       2       4       4       2       3       0       0     151
 2012 197    45   22771   0.725   15867   0.499   22779   0.725   15872   0.499     74021       0   74021    6336   12672   11902   11906   31206       0     117      19      38      15      13      32    2389     451     903     224     224     587   71498    5863   11727   11658   11666   30583       0      18       3       4       4       3       4       0       4       1       1       1       1       1       0      15       2       4       4       2       3       0       0     154
 2012 198    46   22781   0.725   15867   0.499   22789   0.725   15871   0.499     74019       0   74019    6335   12671   11901   11906   31206       0     116      19      38      15      13      32    2388     450     903     224     224     587   71497    5863   11726   11658   11666   30583       0      18       3       4       4       3       4       0       4       1       1       1       0       1       0      15       2       4       4       2       3       0       0     156
 2012 199    47   22779   0.725   15866   0.499   22787   0.725   15871   0.499     74016       0   74016    6334   12670   11901   11905   31205       0     116      19      37      15      13      32    2387     450     902     224     224     587   71496    5863   11726   11658   11666   30583       0      18       3       4       4       3       4       0       3       1       1       1       0       1       0      15       2       4       4       2       3       0       0     159
 2012 200    48   22842   0.724   15866   0.499   22850   0.724   15870   0.499     74014       0   74014    6334   12670   11901   11905   31205       0     115      19      37      15      13      32    2386     450     902     224     224     586   71495    5863   11726   11658   11665   30582       0      18       3       4       4       3       4       0       3       1       1       1       0       1       0      15       2       4       4       2       3       0       0     161
 2012 201    49   22846   0.724   15865   0.499   22854   0.724   15870   0.499     74011       0   74011    6333   12669   11900   11905   31204       0     114      18      37      14      13      32    2385     450     902     224     224     586   71494    5863   11726   11658   11665   30582       0      17       3       4       4       3       4       0       3       1       1       1       0       1       0      15       2       4       4       2       3       0       0     164
 2012 202    50   22867   0.723   15865   0.499   22875   0.724   15870   0.499     74008       0   74008    6333   12668   11900   11904   31203       0     114      18      37      14      13      31    2385     449     901     224     224     586   71493    5863   11726   11658   11665   30582       0      17       2       4       4       3       4       0       3       1       1       1       0       1       0      14       2       4       4       2       3       0       0     167
 2012 203    51   22866   0.723   15865   0.499   22874   0.723   15869   0.499     74006       0   74006    6332   12667   11900   11904   31203       0     113      18      36      14      13      31    2384     449     901     224     224     586   71492    5863   11726   11657   11665   30581       0      17       2       4       4       3       4       0       3       0       1       0       0       1       0      14       2       4       4       2       3       0       0     169
 2012 204    52   22864   0.723   15864   0.499   22872   0.723   15869   0.499     74003       0   74003    6332   12666   11899   11904   31202       0     113      18      36      14      13      31    2383     449     901     224     224     586   71491    5862   11725   11657   11665   30581       0      17       2       4       4       3       4       0       2       0       1       0       0       1       0      14       2       4       4       2       3       0       0     172
 2012 205    53   22863   0.723   15864   0.499   22871   0.723   15868   0.499     74001       0   74001    6331   12666   11899   11904   31202       0     112      18      36      14      13      31    2382     449     900     224     224     586   71490    5862   11725   11657   11665   30581       0      17       2       4       4       3       4       0       2       0       0       0       0       1       0      14       2       4       3       2       3       0       0     174
 2012 206    54   22862   0.723   15864   0.499   22870   0.723   15868   0.499     73999       0   73999    6331   12665   11899   11903   31201       0     112      18      36      14      13      31    2381     448     900     224     223     586   71489    5862   11725   11657   11664   30580       0      17       2       4       4       3       4       0       2       0       0       0       0       1       0      14       2       4       3       2       3       0       0     176
 2012 207    55   22861   0.723   15863   0.499   22868   0.723   15868   0.499     73997       0   73997    6330   12664   11898   11903   31201       0     111      18      36      14      13      31    2381     448     900     224     223     586   71488    5862   11725   11657   11664   30580       0      17       2       4       4       3       4       0       2       0       0       0       0       1       0      14       2       4       3       2       3       0       0     178
 2012 208    56   22860   0.723   15863   0.499   22867   0.723   15867   0.499     73994       0   73994    6330   12664   11898   11903   31200       0     111      17      35      14      13      31    2380     448     899     224     223     585   71487    5862   11725   11657   11664   30580       0      16       2       4       4       2       4       0       2       0       0       0       0       1       0      14       2       4       3       2       3       0       0     181
 2012 209    57   22859   0.723   15863   0.499   22866   0.723   15867   0.499     73992       0   73992    6330   12663   11898   11902   31199       0     110      17      35      14      13      31    2379     448     899     224     223     585   71486    5862   11725   11656   11664   30579       0      16       2       4       4       2       4       0       2       0       0       0       0       1       0      14       2       4       3       2       3       0       0     183
 2012 210    58   22889   0.723   15862   0.499   22896   0.723   15867   0.499     73991       0   73991    6329   12662   11898   11902   31199       0     110      17      35      14      13      31    2379     448     899     224     223     585   71486    5862   11725   11656   11664   30579       0      16       2       4       4       2       4       0       2       0       0       0       0       1       0      14       2       4       3       2       3       0       0     184
 2012 211    59   22949   0.722   15862   0.499   22957   0.722   15866   0.499     73989       0   73989    6329   12662   11897   11902   31198       0     109      17      35      14      13      31    2378     448     899     224     223     585   71485    5862   11724   11656   11664   30579       0      16       2       4       4       2       4       0       2       0       0       0       0       1       0      14       2       4       3       2       3       0       0     186
 2012 212    60   22948   0.722   15862   0.499   22955   0.722   15866   0.499     73986       0   73986    6329   12661   11897   11902   31198       0     109      17      35      14      13      31    2377     447     898     224     223     585   71484    5862   11724   11656   11663   30578       0      16       2       4       4       2       4       0       2       0       0       0       0       0       0      14       2       4       3       2       3       0       0     189
 2012 213    61   22947   0.722   15861   0.499   22954   0.722   15865   0.499     73984       0   73984    6328   12660   11897   11901   31197       0     108      17      34      14      13      31    2377     447     898     224     223     585   71483    5862   11724   11656   11663   30578       0      16       2       4       4       2       4       0       2       0       0       0       0       0       0      14       2       4       3       2       3       0       0     191
 2012 214    62   22945   0.722   15861   0.499   22953   0.722   15865   0.499     73982       0   73982    6328   12660   11897   11901   31197       0     108      17      34      14      13      31    2376     447     898     224     223     585   71482    5862   11724   11656   11663   30578       0      16       2       4       4       2       4       0       1       0       0       0       0       0       0      14       2       4       3       2       3       0       0     193
 2012 215    63   22945   0.722   15861   0.499   22952   0.722   15865   0.499     73980       0   73980    6327   12659   11896   11901   31196       0     108      17      34      14      12      31    2375     447     897     223     223     585   71481    5862   11724   11655   11663   30578       0      16       2       4       4       2       4       0       1       0       0       0       0       0       0      14       2       4       3       2       3       0       0     195
 2012 216    64   22944   0.721   15860   0.499   22951   0.722   15864   0.499     73978       0   73978    6327   12658   11896   11901   31196       0     107      17      34      14      12      31    2375     447     897     223     223     585   71481    5861   11724   11655   11663   30577       0      16       2       4       4       2       4       0       1       0       0       0       0       0       0      14       2       4       3       2       3       0       0     197
 2012 217    65   22943   0.721   15860   0.499   22950   0.722   15864   0.499     73976       0   73976    6327   12658   11896   11900   31195       0     107      17      34      14      12      30    2374     447     897     223     223     584   71480    5861   11724   11655   11663   30577       0      16       2       4       4       2       4       0       1       0       0       0       0       0       0      14       2       4       3       2       3       0       0     199
 2012 218    66   22942   0.721   15860   0.499   22949   0.722   15864   0.499     73974       0   73974    6327   12657   11896   11900   31195       0     106      17      34      13      12      30    2373     446     896     223     223     584   71479    5861   11723   11655   11663   30577       0      16       2       4       4       2       4       0       1       0       0       0       0       0       0      14       2       4       3       2       3       0       0     201
 2012 219    67   22941   0.721   15859   0.499   22948   0.722   15864   0.499     73973       0   73973    6326   12657   11895   11900   31194       0     106      16      33      13      12      30    2373     446     896     223     223     584   71478    5861   11723   11655   11662   30576       0      15       2       4       4       2       4       0       1       0       0       0       0       0       0      14       2       4       3       2       3       0       0     202
 2012 220    68   22940   0.721   15859   0.499   22947   0.722   15863   0.499     73970       0   73970    6326   12656   11895   11900   31194       0     106      16      33      13      12      30    2372     446     896     223     223     584   71477    5861   11723   11655   11662   30576       0      15       2       4       4       2       4       0       1       0       0       0       0       0       0      14       2       4       3       2       3       0       0     205
 2012 221    69   22939   0.721   15859   0.499   22946   0.722   15863   0.499     73969       0   73969    6326   12655   11895   11899   31193       0     105      16      33      13      12      30    2371     446     896     223     223     584   71477    5861   11723   11655   11662   30576       0      15       2       4       4       2       4       0       1       0       0       0       0       0       0      14       2       4       3       2       3       0       0     206
 2012 222    70   22938   0.721   15859   0.499   22945   0.722   15862   0.499     73966       0   73966    6325   12655   11894   11899   31193       0     105      16      33      13      12      30    2371     446     895     223     223     584   71476    5861   11723   11654   11662   30575       0      15       2       4       4       2       3       0       1       0       0       0       0       0       0      14       2       4       3       2       3       0       0     209
 2012 223    71   22937   0.721   15858   0.499   22944   0.722   15862   0.499     73964       0   73964    6325   12654   11894   11899   31192       0     104      16      33      13      12      30    2370     446     895     223     223     584   71475    5861   11723   11654   11662   30575       0      15       2       4       4       2       3       0       1       0       0       0       0       0       0      14       2       4       3       2       3       0       0     211
 2012 224    72   22936   0.721   15858   0.499   22943   0.721   15862   0.499     73962       0   73962    6325   12653   11894   11899   31192       0     104      16      33      13      12      30    2369     446     895     223     223     584   71474    5861   11723   11654   11662   30575       0      15       2       4       4       2       3       0       1       0       0       0       0       0       0      14       2       4       3       2       3       0       0     213
 2012 225    73   22935   0.721   15858   0.499   22942   0.721   15861   0.499     73960       0   73960    6324   12653   11894   11898   31191       0     104      16      32      13      12      30    2369     445     894     223     223     583   71473    5861   11722   11654   11662   30574       0      15       2       4       4       2       3       0       1       0       0       0       0       0       0      14       2       3       3       2       3       0       0     215
 2012 226    74   22934   0.721   15857   0.499   22941   0.721   15861   0.499     73958       0   73958    6324   12652   11893   11898   31191       0     103      16      32      13      12      30    2368     445     894     223     222     583   71472    5861   11722   11654   11661   30574       0      15       2       4       4       2       3       0       1       0       0       0       0       0       0      14       2       3       3       2       3       0       0     217
 2012 227    75   22933   0.721   15857   0.499   22940   0.721   15861   0.499     73956       0   73956    6324   12651   11893   11898   31190       0     103      16      32      13      12      30    2367     445     894     223     222     583   71471    5861   11722   11654   11661   30574       0      15       2       4       4       2       3       0       1       0       0       0       0       0       0      14       2       3       3       2       3       0       0     219
 2012 228    76   22932   0.721   15856   0.499   22938   0.721   15860   0.499     73954       0   73954    6323   12651   11893   11898   31189       0     102      16      32      13      12      30    2366     445     893     223     222     583   71471    5861   11722   11654   11661   30573       0      15       2       4       4       2       3       0       1       0       0       0       0       0       0      14       2       3       3       2       3       0       0     221
 2012 229    77   22931   0.721   15856   0.499   22937   0.721   15860   0.499     73952       0   73952    6323   12650   11893   11897   31189       0     102      16      32      13      12      30    2366     445     893     223     222     583   71470    5861   11722   11653   11661   30573       0      15       2       4       4       2       3       0       1       0       0       0       0       0       0      14       2       3       3       2       3       0       0     223
 2012 230    78   22930   0.721   15856   0.499   22936   0.721   15860   0.499     73950       0   73950    6323   12649   11892   11897   31188       0     102      16      32      13      12      30    2365     445     893     223     222     583   71469    5861   11722   11653   11661   30573       0      15       2       4       4       2       3       0       1       0       0       0       0       0       0      14       2       3       3       2       3       0       0     225
 2012 231    79   22929   0.721   15856   0.499   22935   0.721   15859   0.499     73948       0   73948    6323   12649   11892   11897   31188       0     101      16      32      13      12      30    2364     444     892     223     222     583   71468    5860   11722   11653   11661   30572       0      15       2       4       4       2       3       0       1       0       0       0       0       0       0      14       2       3       3       2       3       0       0     227
 2012 232    80   22928   0.721   15855   0.499   22934   0.721   15859   0.499     73946       0   73946    6322   12648   11892   11897   31187       0     101      16      31      13      12      29    2363     444     892     223     222     582   71467    5860   11721   11653   11661   30572       0      15       2       4       4       2       3       0       1       0       0       0       0       0       0      14       2       3       3       2       3       0       0     229
 2012 233    81   22927   0.721   15855   0.499   22934   0.721   15859   0.499     73944       0   73944    6322   12648   11892   11896   31187       0     101      15      31      13      12      29    2363     444     892     223     222     582   71466    5860   11721   11653   11660   30572       0      15       2       4       4       2       3       0       1       0       0       0       0       0       0      14       2       3       3       2       3       0       0     231
 2012 234    82   22926   0.721   15855   0.499   22933   0.721   15858   0.499     73943       0   73943    6322   12647   11891   11896   31186       0     100      15      31      13      12      29    2362     444     891     223     222     582   71465    5860   11721   11653   11660   30571       0      15       2       4       4       2       3       0       1       0       0       0       0       0       0      14       2       3       3       2       3       0       0     232
 2012 235    83   22925   0.721   15854   0.499   22932   0.721   15858   0.499     73941       0   73941    6322   12647   11891   11896   31185       0     100      15      31      13      12      29    2362     444     891     223     222     582   71465    5860   11721   11652   11660   30571       0      15       2       4       4       2       3       0       0       0       0       0       0       0       0      14       2       3       3       2       3       0       0     234
 2012 236    84   22924   0.721   15854   0.499   22931   0.721   15858   0.499     73939       0   73939    6321   12646   11891   11896   31185       0     100      15      31      13      12      29    2361     444     891     223     222     582   71464    5860   11721   11652   11660   30570       0      15       2       4       3       2       3       0       0       0       0       0       0       0       0      14       2       3       3       2       3       0       0     236
 2012 237    85   22923   0.721   15854   0.499   22930   0.721   15858   0.499     73937       0   73937    6321   12645   11891   11896   31184       0      99      15      31      13      12      29    2360     444     890     222     222     582   71463    5860   11721   11652   11660   30570       0      15       2       4       3       2       3       0       0       0       0       0       0       0       0      14       2       3       3       2       3       0       0     238
 2012 238    86   22922   0.721   15853   0.499   22929   0.721   15857   0.499     73935       0   73935    6321   12645   11890   11895   31184       0      99      15      31      12      12      29    2359     443     890     222     222     582   71462    5860   11721   11652   11660   30570       0      15       2       4       3       2       3       0       0       0       0       0       0       0       0      14       2       3       3       2       3       0       0     240
 2012 239    87   22921   0.721   15853   0.499   22928   0.721   15857   0.499     73933       0   73933    6320   12644   11890   11895   31183       0      99      15      30      12      12      29    2359     443     890     222     222     581   71461    5860   11720   11652   11660   30569       0      15       2       4       3       2       3       0       0       0       0       0       0       0       0      14       2       3       3       2       3       0       0     242
 2012 240    88   22920   0.721   15853   0.499   22927   0.721   15857   0.499     73931       0   73931    6320   12644   11890   11895   31183       0      98      15      30      12      12      29    2358     443     889     222     222     581   71460    5860   11720   11652   11659   30569       0      14       2       4       3       2       3       0       0       0       0       0       0       0       0      14       2       3       3       2       3       0       0     244
 2012 241    89   22919   0.721   15852   0.499   22926   0.721   15856   0.499     73929       0   73929    6320   12643   11890   11895   31182       0      98      15      30      12      12      29    2357     443     889     222     222     581   71460    5860   11720   11652   11659   30569       0      14       2       4       3       2       3       0       0       0       0       0       0       0       0      14       2       3       3       2       3       0       0     246
 2012 242    90   22918   0.721   15852   0.498   22925   0.721   15856   0.499     73927       0   73927    6320   12642   11889   11894   31182       0      98      15      30      12      12      29    2356     443     889     222     222     581   71459    5860   11720   11651   11659   30568       0      14       2       4       3       2       3       0       0       0       0       0       0       0       0      14       2       3       3       2       3       0       0     248
 2012 243    91   22917   0.721   15852   0.498   22924   0.721   15856   0.499     73925       0   73925    6319   12642   11889   11894   31181       0      97      15      30      12      11      29    2356     443     888     222     222     581   71458    5860   11720   11651   11659   30568       0      14       2       4       3       2       3       0       0       0       0       0       0       0       0      14       2       3       3       2       3       0       0     250
 2012 244    92   22916   0.721   15852   0.498   22923   0.721   15855   0.499     73924       0   73924    6319   12641   11889   11894   31181       0      97      15      30      12      11      29    2355     443     888     222     221     581   71457    5860   11720   11651   11659   30568       0      14       2       4       3       2       3       0       0       0       0       0       0       0       0      14       2       3       3       2       3       0       0     251
 2012 245    93   22915   0.721   15851   0.498   22922   0.721   15855   0.499     73922       0   73922    6319   12640   11889   11894   31180       0      97      15      30      12      11      29    2354     442     888     222     221     581   71456    5860   11720   11651   11659   30567       0      14       2       4       3       2       3       0       0       0       0       0       0       0       0      14       2       3       3       2       3       0       0     253
 2012 246    94   22915   0.721   15851   0.498   22921   0.721   15855   0.499     73920       0   73920    6318   12640   11888   11893   31179       0      96      15      30      12      11      29    2354     442     887     222     221     581   71455    5860   11719   11651   11659   30567       0      14       2       3       3       2       3       0       0       0       0       0       0       0       0      14       2       3       3       2       3       0       0     255
 2012 247    95   22914   0.721   15851   0.498   22920   0.721   15854   0.499     73918       0   73918    6318   12639   11888   11893   31179       0      96      15      29      12      11      29    2353     442     887     222     221     580   71455    5859   11719   11651   11658   30567       0      14       2       3       3       2       3       0       0       0       0       0       0       0       0      14       2       3       3       2       3       0       0     257
 2012 248    96   22913   0.721   15850   0.498   22919   0.721   15854   0.499     73916       0   73916    6318   12639   11888   11893   31178       0      96      15      29      12      11      29    2352     442     887     222     221     580   71454    5859   11719   11651   11658   30566       0      14       2       3       3       2       3       0       0       0       0       0       0       0       0      14       2       3       3       2       3       0       0     259
 2012 249    97   22912   0.720   15850   0.498   22918   0.721   15854   0.499     73914       0   73914    6318   12638   11888   11893   31178       0      96      15      29      12      11      28    2351     442     886     222     221     580   71453    5859   11719   11650   11658   30566       0      14       2       3       3       2       3       0       0       0       0       0       0       0       0      14       2       3       3       2       3       0       0     261
 2012 250    98   22911   0.720   15850   0.498   22917   0.721   15853   0.499     73912       0   73912    6317   12638   11888   11893   31177       0      95      15      29      12      11      28    2351     442     886     222     221     580   71452    5859   11719   11650   11658   30566       0      14       2       3       3       2       3       0       0       0       0       0       0       0       0      14       2       3       3       2       3       0       0     263
 2012 251    99   22910   0.720   15849   0.498   22916   0.721   15853   0.499     73910       0   73910    6317   12637   11887   11892   31177       0      95      14      29      12      11      28    2350     441     886     222     221     580   71451    5859   11719   11650   11658   30565       0      14       2       3       3       2       3       0       0       0       0       0       0       0       0      14       2       3       3       2       3       0       0     265
 2012 252   100   22909   0.720   15849   0.498   22915   0.721   15853   0.499     73908       0   73908    6317   12636   11887   11892   31176       0      95      14      29      12      11      28    2349     441     885     222     221     580   71450    5859   11719   11650   11658   30565       0      14       2       3       3       2       3       0       0       0       0       0       0       0       0      14       2       3       3       2       3       0       0     267
 2012 253   101   22908   0.720   15849   0.498   22914   0.721   15852   0.499     73907       0   73907    6316   12636   11887   11892   31176       0      94      14      29      12      11      28    2348     441     885     222     221     580   71450    5859   11718   11650   11658   30565       0      14       2       3       3       2       3       0       0       0       0       0       0       0       0      14       2       3       3       2       3       0       0     268
 2012 254   102   22907   0.720   15848   0.498   22913   0.721   15852   0.498     73905       0   73905    6316   12635   11887   11892   31175       0      94      14      29      12      11      28    2348     441     885     222     221     579   71449    5859   11718   11650   11657   30564       0      14       2       3       3       2       3       0       0       0       0       0       0       0       0      14       2       3       3       2       3       0       0     270
 2012 255   103   22906   0.720   15848   0.498   22913   0.721   15852   0.498     73903       0   73903    6316   12635   11886   11891   31175       0      94      14      29      12      11      28    2347     441     884     222     221     579   71448    5859   11718   11650   11657   30564       0      14       2       3       3       2       3       0       0       0       0       0       0       0       0      14       2       3       3       2       3       0       0     272
 2012 256   104   22905   0.720   15848   0.498   22912   0.720   15851   0.498     73901       0   73901    6316   12634   11886   11891   31174       0      94      14      28      12      11      28    2346     441     884     221     221     579   71447    5859   11718   11649   11657   30564       0      14       2       3       3       2       3       0       0       0       0       0       0       0       0      14       2       3       3       2       3       0       0     274
 2012 257   105   22904   0.720   15847   0.498   22911   0.720   15851   0.498     73899       0   73899    6315   12633   11886   11891   31174       0      93      14      28      12      11      28    2345     440     884     221     221     579   71446    5859   11718   11649   11657   30563       0      14       2       3       3       2       3       0       0       0       0       0       0       0       0      14       2       3       3       2       3       0       0     276
 2012 258   106   22903   0.720   15847   0.498   22910   0.720   15851   0.498     73897       0   73897    6315   12633   11886   11891   31173       0      93      14      28      12      11      28    2345     440     883     221     221     579   71445    5859   11718   11649   11657   30563       0      14       2       3       3       2       3       0       0       0       0       0       0       0       0      14       2       3       3       2       3       0       0     278
 2012 259   107   22902   0.720   15847   0.498   22909   0.720   15851   0.498     73895       0   73895    6315   12632   11885   11890   31172       0      93      14      28      12      11      28    2344     440     883     221     221     579   71444    5859   11718   11649   11657   30563       0      14       2       3       3       2       3       0       0       0       0       0       0       0       0      14       2       3       3       2       3       0       0     280
 2012 260   108   22901   0.720   15847   0.498   22908   0.720   15850   0.498     73893       0   73893    6314   12632   11885   11890   31172       0      93      14      28      12      11      28    2343     440     883     221     221     579   71443    5859   11717   11649   11656   30562       0      14       2       3       3       2       3       0       0       0       0       0       0       0       0      14       2       3       3       2       3       0       0     282
 2012 261   109   22900   0.720   15846   0.498   22907   0.720   15850   0.498     73891       0   73891    6314   12631   11885   11890   31171       0      92      14      28      12      11      28    2342     440     882     221     221     578   71443    5858   11717   11649   11656   30562       0      14       2       3       3       2       3       0       0       0       0       0       0       0       0      14       2       3       3       2       3       0       0     284
 2012 262   110   22899   0.720   15846   0.498   22906   0.720   15850   0.498     73889       0   73889    6314   12630   11885   11890   31171       0      92      14      28      12      11      28    2342     440     882     221     220     578   71442    5858   11717   11649   11656   30561       0      14       2       3       3       2       3       0       0       0       0       0       0       0       0      14       2       3       3       2       3       0       0     286
 2012 263   111   22898   0.720   15846   0.498   22905   0.720   15849   0.498     73888       0   73888    6314   12630   11884   11890   31170       0      92      14      28      12      11      28    2341     440     882     221     220     578   71441    5858   11717   11648   11656   30561       0      14       2       3       3       2       3       0       0       0       0       0       0       0       0      14       2       3       3       2       3       0       0     287
 2012 264   112   22898   0.720   15845   0.498   22904   0.720   15849   0.498     73886       0   73886    6313   12629   11884   11889   31169       0      92      14      28      12      11      28    2340     439     881     221     220     578   71440    5858   11717   11648   11656   30561       0      14       2       3       3       2       3       0       0       0       0       0       0       0       0      14       2       3       3       2       3       0       0     289
 2012 265   113   22897   0.720   15845   0.498   22903   0.720   15849   0.498     73884       0   73884    6313   12629   11884   11889   31169       0      91      14      28      11      11      28    2339     439     881     221     220     578   71439    5858   11717   11648   11656   30560       0      14       2       3       3       2       3       0       0       0       0       0       0       0       0      14       2       3       3       2       3       0       0     291
 2012 266   114   22896   0.720   15845   0.498   22902   0.720   15848   0.498     73882       0   73882    6313   12628   11884   11889   31168       0      91      14      27      11      11      28    2339     439     881     221     220     578   71438    5858   11717   11648   11656   30560       0      14       2       3       3       2       3       0       0       0       0       0       0       0       0      14       2       3       3       2       3       0       0     293
 2012 267   115   22895   0.720   15844   0.498   22901   0.720   15848   0.498     73880       0   73880    6313   12628   11883   11889   31168       0      91      14      27      11      11      28    2338     439     880     221     220     577   71437    5858   11716   11648   11655   30560       0      14       2       3       3       2       3       0       0       0       0       0       0       0       0      14       2       3       3       2       3       0       0     295
 2012 268   116   22894   0.720   15844   0.498   22900   0.720   15848   0.498     73878       0   73878    6312   12627   11883   11888   31167       0      91      14      27      11      11      28    2337     439     880     221     220     577   71436    5858   11716   11648   11655   30559       0      14       2       3       3       2       3       0       0       0       0       0       0       0       0      14       2       3       3       2       3       0       0     297
 2012 269   117   22893   0.720   15844   0.498   22900   0.720   15847   0.498     73876       0   73876    6312   12627   11883   11888   31167       0      90      14      27      11      11      27    2336     439     880     221     220     577   71436    5858   11716   11647   11655   30559       0      14       2       3       3       2       3       0       0       0       0       0       0       0       0      14       2       3       3       2       3       0       0     299
 2012 270   118   22892   0.720   15844   0.498   22899   0.720   15847   0.498     73875       0   73875    6312   12626   11883   11888   31166       0      90      14      27      11      11      27    2336     438     879     221     220     577   71435    5858   11716   11647   11655   30559       0      14       2       3       3       2       3       0       0       0       0       0       0       0       0      14       2       3       3       2       3       0       0     300
 2012 271   119   22892   0.720   15843   0.498   22898   0.720   15847   0.498     73873       0   73873    6312   12626   11883   11888   31166       0      90      14      27      11      11      27    2335     438     879     221     220     577   71434    5858   11716   11647   11655   30558       0      14       2       3       3       2       3       0       0       0       0       0       0       0       0      14       2       3       3       2       3       0       0     302
 2012 272   120   22891   0.720   15843   0.498   22897   0.720   15847   0.498     73872       0   73872    6311   12625   11882   11888   31165       0      90      13      27      11      11      27    2335     438     879     221     220     577   71434    5858   11716   11647   11655   30558       0      14       2       3       3       2       3       0       0       0       0       0       0       0       0      14       2       3       3       2       3       0       0     303
 2012 273   121   22891   0.720   15843   0.498   22897   0.720   15847   0.498     73871       0   73871    6311   12625   11882   11888   31165       0      90      13      27      11      11      27    2334     438     879     221     220     577   71433    5858   11716   11647   11655   30558       0      14       2       3       3       2       3       0       0       0       0       0       0       0       0      14       2       3       3       2       3       0       0     304
 2012 274   122   22890   0.720   15843   0.498   22896   0.720   15846   0.498     73869       0   73869    6311   12625   11882   11887   31164       0      90      13      27      11      11      27    2333     438     879     221     220     576   71432    5858   11716   11647   11655   30557       0      14       2       3       3       2       3       0       0       0       0       0       0       0       0      14       2       3       3       2       3       0       0     306
 2012 275   123   22889   0.720   15843   0.498   22895   0.720   15846   0.498     73868       0   73868    6311   12624   11882   11887   31164       0      89      13      27      11      11      27    2333     438     878     221     220     576   71432    5858   11716   11647   11655   30557       0      14       2       3       3       2       3       0       0       0       0       0       0       0       0      14       2       3       3       2       3       0       0     307
 2012 276   124   22888   0.720   15842   0.498   22894   0.720   15846   0.498     73866       0   73866    6310   12624   11882   11887   31163       0      89      13      27      11      11      27    2332     438     878     221     220     576   71431    5858   11715   11647   11654   30557       0      14       2       3       3       2       3       0       0       0       0       0       0       0       0      14       2       3       3       2       3       0       0     309
 2012 277   125   22887   0.720   15842   0.498   22894   0.720   15846   0.498     73865       0   73865    6310   12623   11882   11887   31163       0      89      13      27      11      11      27    2331     437     878     220     220     576   71430    5857   11715   11647   11654   30557       0      14       2       3       3       2       3       0       0       0       0       0       0       0       0      14       2       3       3       2       3       0       0     310
 2012 278   126   22886   0.720   15842   0.498   22893   0.720   15846   0.498     73864       0   73863    6310   12622   11882   11887   31163       0      89      13      27      11      11      27    2331     437     877     220     220     576   71430    5857   11715   11647   11654   30556       0      14       2       3       3       2       3       0       0       0       0       0       0       0       0      14       2       3       3       2       3       0       0     312
 2012 279   127   22885   0.720   15842   0.498   22892   0.720   15846   0.498     73862       1   73862    6309   12622   11881   11887   31162       0      89      13      26      11      11      27    2330     437     877     220     220     576   71429    5857   11715   11647   11654   30556       1      14       2       3       3       2       3       0       0       0       0       0       0       0       0      14       2       3       3       2       3       0       0     313
 2012 280   128   22884   0.720   15842   0.498   22891   0.720   15845   0.498     73861       1   73860    6309   12621   11881   11887   31162       0      88      13      26      11      11      27    2329     437     877     220     220     576   71429    5857   11715   11646   11654   30556       1      14       2       3       3       2       3       1       0       0       0       0       0       0       0      14       2       3       3       2       3       0       0     315
 2012 281   129   22884   0.720   15842   0.498   22890   0.720   15845   0.498     73860       1   73859    6309   12621   11881   11887   31162       0      88      13      26      11      11      27    2329     437     876     220     220     576   71428    5857   11715   11646   11654   30556       1      14       2       3       3       2       3       1       0       0       0       0       0       0       0      14       2       3       3       2       3       0       0     316
 2012 282   130   22883   0.720   15841   0.498   22889   0.720   15845   0.498     73859       1   73857    6309   12620   11881   11887   31161       0      88      13      26      11      11      27    2328     437     876     220     220     576   71427    5857   11715   11646   11654   30555       1      14       2       3       3       2       3       1       0       0       0       0       0       0       0      14       2       3       3       2       3       0       0     318
 2012 283   131   22882   0.720   15841   0.498   22888   0.720   15845   0.498     73857       2   73856    6308   12619   11881   11886   31161       0      88      13      26      11      11      27    2327     436     876     220     220     576   71427    5857   11714   11646   11654   30555       1      14       2       3       3       2       3       1       0       0       0       0       0       0       0      14       2       3       3       2       3       0       0     319
 2012 284   132   22881   0.720   15841   0.498   22887   0.720   15845   0.498     73857       2   73855    6308   12619   11881   11886   31161       0      88      13      26      11      11      27    2327     436     875     220     220     576   71426    5857   11714   11646   11654   30555       2      14       2       3       3       2       3       1       0       0       0       0       0       0       0      14       2       3       3       2       3       0       0     320
 2012 285   133   22880   0.720   15841   0.498   22887   0.720   15845   0.498     73856       2   73854    6308   12619   11881   11886   31160       0      88      13      26      11      11      27    2326     436     875     220     220     575   71426    5857   11714   11646   11654   30555       2      14       2       3       3       2       3       2       0       0       0       0       0       0       0      14       2       3       3       2       3       0       0     321
 2012 286   134   22880   0.719   15841   0.498   22886   0.720   15845   0.498     73856       3   73853    6308   12618   11881   11886   31160       0      88      13      26      11      11      27    2326     436     875     220     220     575   71426    5857   11714   11646   11654   30555       3      14       2       3       3       2       3       2       0       0       0       0       0       0       0      14       2       3       3       2       3       0       0     322
 2012 287   135   22880   0.719   15841   0.498   22886   0.720   15844   0.498     73855       3   73852    6308   12618   11880   11886   31160       0      88      13      26      11      11      27    2326     436     875     220     220     575   71425    5857   11714   11646   11654   30555       3      14       2       3       3       2       3       3       0       0       0       0       0       0       1      14       2       3       3       2       3       0       0     323
 2012 288   136   22879   0.719   15841   0.498   22885   0.720   15844   0.498     73856       4   73851    6307   12618   11880   11886   31160       0      87      13      26      11      11      27    2325     436     875     220     220     575   71425    5857   11714   11646   11654   30554       4      14       2       3       3       2       3       3       0       0       0       0       0       0       1      14       2       3       3       2       3       0       0     324
 2012 289   137   22879   0.719   15841   0.498   22885   0.720   15844   0.498     73856       5   73850    6307   12618   11880   11886   31159       0      87      13      26      11      11      27    2325     436     874     220     220     575   71424    5857   11714   11646   11654   30554       5      14       2       3       3       2       3       4       0       0       0       0       0       0       1      14       2       3       3       2       3       0       0     325
 2012 290   138   22878   0.719   15841   0.498   22884   0.720   15844   0.498     73856       7   73849    6307   12617   11880   11886   31159       0      87      13      26      11      11      27    2324     435     874     220     220     575   71424    5857   11714   11646   11654   30554       6      14       2       3       3       2       3       5       0       0       0       0       0       0       1      14       2       3       3       2       3       0       0     326
 2012 291   139   22878   0.719   15840   0.498   22884   0.720   15844   0.498     73856       8   73848    6306   12617   11880   11886   31159       0      87      13      26      11      11      27    2324     435     874     220     219     575   71424    5857   11714   11646   11654   30554       7      14       2       3       3       2       3       6       0       0       0       0       0       0       1      14       2       3       3       2       3       0       1     327
 2012 292   140   22877   0.719   15840   0.498   22883   0.720   15844   0.498     73857       9   73848    6306   12617   11880   11886   31159       1      87      13      26      11      11      27    2323     435     874     220     219     575   71423    5856   11714   11646   11654   30554       9      14       2       3       3       2       3       7       0       0       0       0       0       0       1      14       2       3       3       2       3       0       1     327
 2012 293   141   22877   0.719   15840   0.498   22883   0.720   15844   0.498     73858      11   73847    6306   12616   11880   11886   31159       1      87      13      26      11      11      27    2323     435     874     220     219     575   71423    5856   11714   11646   11654   30554      10      14       2       3       3       2       3       9       0       0       0       0       0       0       2      14       2       3       3       2       3       0       1     328
 2012 294   142   22877   0.719   15840   0.498   22883   0.720   15844   0.498     73860      13   73847    6306   12616   11880   11886   31158       1      87      13      26      11      11      27    2323     435     874     220     219     575   71423    5856   11714   11646   11654   30554      12      14       2       3       3       2       3      10       0       0       0       0       0       0       2      14       2       3       3       2       3       0       1     328
 2012 295   143   22876   0.719   15840   0.498   22883   0.720   15844   0.498     73862      16   73846    6306   12616   11880   11886   31158       1      87      13      26      11      11      27    2323     435     873     220     219     575   71423    5856   11714   11646   11654   30553      15      14       2       3       3       2       3      13       0       0       0       0       0       0       2      14       2       3       3       2       3       0       1     329
 2012 296   144   22876   0.719   15840   0.498   22883   0.720   15844   0.498     73865      20   73846    6306   12616   11880   11886   31158       1      87      13      26      11      11      27    2323     435     873     220     219     575   71423    5856   11714   11646   11654   30553      19      14       2       3       3       2       3      16       0       0       0       0       0       0       3      14       2       3       3       2       3       0       1     329
 2012 297   145   22876   0.719   15840   0.498   22883   0.720   15844   0.498     73869      23   73845    6306   12616   11880   11886   31158       1      87      13      26      11      11      27    2322     435     873     220     219     575   71422    5856   11714   11646   11654   30553      22      14       2       3       3       2       3      19       0       0       0       0       0       0       4      14       2       3       3       2       3       0       1     330
 2012 298   146   22876   0.719   15840   0.498   22883   0.720   15844   0.498     73873      28   73845    6306   12616   11880   11886   31158       1      87      13      26      11      11      27    2322     435     873     220     219     575   71422    5856   11713   11646   11654   30553      27      14       2       3       3       2       3      23       0       0       0       0       0       0       4      14       2       3       3       2       3       0       2     330
 2012 299   147   22876   0.719   15840   0.498   22883   0.720   15844   0.498     73878      34   73844    6305   12616   11880   11886   31158       1      87      13      26      11      11      27    2322     435     873     220     219     575   71422    5856   11713   11646   11654   30553      32      14       2       3       3       2       3      27       0       0       0       0       0       0       5      14       2       3       3       2       3       0       2     331
 2012 300   148   22876   0.719   15840   0.498   22883   0.720   15844   0.498     73883      39   73844    6305   12616   11880   11886   31157       2      87      13      26      11      11      27    2322     435     873     220     219     575   71422    5856   11713   11646   11654   30553      38      14       2       3       3       2       3      32       0       0       0       0       0       0       6      14       2       3       3       2       3       0       2     331
 2012 301   149   22876   0.719   15840   0.498   22883   0.720   15844   0.498     73889      46   73844    6305   12616   11880   11886   31157       2      87      13      26      11      11      27    2322     434     873     220     219     575   71422    5856   11713   11645   11654   30553      44      14       2       3       3       2       3      37       0       0       0       0       0       0       7      14       2       3       3       2       3       0       2     331
 2012 302   150   22877   0.719   15840   0.498   22883   0.720   15844   0.498     73895      52   73843    6305   12616   11880   11886   31157       2      87      13      26      11      11      27    2321     434     873     220     219     575   71421    5856   11713   11645   11654   30553      50      14       2       3       3       2       3      42       0       0       0       0       0       0       8      14       2       3       3       2       3       0       3     332
 2012 303   151   22877   0.719   15840   0.498   22883   0.720   15844   0.498     73902      59   73843    6305   12616   11880   11886   31157       3      87      13      26      11      11      27    2321     434     873     220     219     575   71421    5856   11713   11645   11653   30553      56      14       2       3       3       2       3      47       0       0       0       0       0       0       9      14       2       3       3       2       3       0       4     332
 2012 304   152   22877   0.719   15840   0.498   22884   0.720   15844   0.498     73909      67   73842    6305   12615   11880   11886   31157       4      87      13      26      11      11      27    2321     434     873     220     219     574   71421    5856   11713   11645   11653   30553      63      14       2       3       3       2       3      53       0       0       0       0       0       0      10      14       2       3       3       2       3       0       5     333
 2012 305   153   22878   0.719   15840   0.498   22884   0.720   15844   0.498     73917      75   73842    6305   12615   11880   11886   31157       4      86      13      26      11      11      27    2321     434     873     220     219     574   71421    5856   11713   11645   11653   30553      71      14       2       3       3       2       3      59       0       0       0       0       0       0      12      14       2       3       3       2       3       0       5     333
 2012 306   154   22878   0.719   15840   0.498   22884   0.720   15843   0.498     73925      84   73842    6304   12615   11880   11886   31157       5      86      13      26      11      11      27    2321     434     873     220     219     574   71421    5856   11713   11645   11653   30553      79      14       2       3       3       2       3      66       0       0       0       0       0       0      13      14       2       3       3       2       3       0       6     333
 2012 307   155   22878   0.719   15840   0.498   22885   0.720   15843   0.498     73935      93   73842    6304   12615   11880   11886   31157       5      86      13      26      11      11      27    2321     434     873     220     219     574   71421    5856   11713   11645   11653   30552      88      14       2       3       3       2       3      74       0       0       0       0       0       0      14      14       2       3       3       2       3       0       6     333
 2012 308   156   22879   0.719   15840   0.498   22885   0.720   15843   0.498     73944     103   73841    6304   12615   11880   11885   31157       5      86      13      26      11      11      27    2321     434     873     220     219     574   71421    5856   11713   11645   11653   30552      98      14       2       3       3       2       3      82       0       0       0       0       0       0      16      14       2       3       3       2       3       0       7     334
 2012 309   157   22880   0.719   15840   0.498   22886   0.720   15843   0.498     73954     113   73841    6304   12615   11880   11885   31156       7      86      13      26      11      11      27    2320     434     873     220     219     574   71420    5856   11713   11645   11653   30552     106      14       2       3       3       2       3      89       0       0       0       0       0       0      17      14       2       3       3       2       3       0       8     334
[...]
 2012 317   165   22882   0.720   15840   0.498   22889   0.720   15843   0.498     74056     216   73840    6304   12615   11880   11885   31156      10      86      12      26      11      11      27    2320     434     873     220     219     574   71420    5856   11713   11645   11653   30552     206      14       2       3       3       2       3     173       0       0       0       0       0       0      33      14       2       3       3       2       3       0      13     336
 2012 318   166   22883   0.720   15840   0.498   22889   0.720   15843   0.498     74072     232   73840    6304   12615   11880   11885   31156      10      86      12      26      11      11      27    2320     434     873     220     219     574   71420    5856   11713   11645   11653   30552     222      14       2       3       3       2       3     186       0       0       0       0       0       0      36      14       2       3       3       2       3       0      13     336
 2012 319   167   22883   0.720   15840   0.498   22889   0.720   15843   0.498     74088     249   73839    6304   12615   11880   11885   31156      10      86      12      26      11      11      27    2320     434     873     220     219     574   71420    5856   11713   11645   11653   30552     239      14       2       3       3       2       3     200       0       0       0       0       0       0      38      14       2       3       3       2       3       0      13     336
 2012 320   168   22883   0.720   15840   0.498   22889   0.720   15843   0.498     74106     266   73839    6304   12615   11880   11885   31156      10      86      12      26      11      11      27    2320     434     873     220     219     574   71420    5856   11713   11645   11653   30552     256      14       2       3       3       2       3     215       0       0       0       0       0       0      41      14       2       3       3       2       3       0      13     336
 2012 321   169   22883   0.720   15840   0.498   22889   0.720   15843   0.498     74124     285   73839    6304   12615   11880   11885   31156      10      86      12      26      11      11      27    2320     434     873     220     219     574   71420    5856   11713   11645   11653   30552     274      14       2       3       3       2       3     231       0       0       0       0       0       0      44      14       2       3       3       2       3       0      13     336
 2012 322   170   22883   0.720   15840   0.498   22889   0.720   15843   0.498     74143     304   73839    6304   12615   11880   11885   31155      11      86      12      26      11      11      27    2320     434     873     220     219     574   71419    5856   11713   11645   11653   30552     294      14       2       3       3       2       3     247       0       0       0       0       0       0      47      14       2       3       3       2       3       0      14     336
 2012 323   171   22883   0.720   15840   0.498   22889   0.720   15843   0.498     74163     324   73839    6304   12615   11880   11885   31155      11      86      12      26      11      11      27    2320     434     873     220     219     574   71419    5856   11713   11645   11653   30552     313      14       2       3       3       2       3     264       0       0       0       0       0       0      50      14       2       3       3       2       3       0      14     336
 2012 324   172   22883   0.720   15840   0.498   22890   0.720   15843   0.498     74184     345   73839    6304   12615   11880   11885   31155      11      86      12      26      11      11      27    2320     434     873     220     219     574   71419    5856   11713   11645   11653   30552     334      14       2       3       3       2       3     281       0       0       0       0       0       0      53      14       2       3       3       2       3       0      14     336
 2012 325   173   22884   0.720   15840   0.498   22890   0.720   15843   0.498     74205     367   73839    6304   12615   11880   11885   31155      11      86      12      26      11      11      27    2320     434     873     220     219     574   71419    5856   11713   11645   11653   30552     355      14       2       3       3       2       3     299       0       0       0       0       0       0      56      14       2       3       3       2       3       0      14     336
 2012 326   174   22885   0.720   15840   0.498   22891   0.720   15843   0.498     74226     387   73839    6304   12615   11880   11885   31155      13      86      12      26      11      11      27    2320     434     873     220     219     574   71419    5856   11713   11645   11653   30552     374      14       2       3       3       2       3     315       0       0       0       0       0       0      59      14       2       3       3       2       3       0      16     337
 2012 327   175   22888   0.720   15840   0.498   22894   0.720   15843   0.498     74246     407   73839    6303   12615   11880   11885   31155      16      86      12      26      11      11      27    2320     433     873     220     219     574   71419    5856   11713   11645   11653   30552     391      14       2       3       3       2       3     329       0       0       0       0       0       0      62      14       2       3       3       2       3       0      20     337
 2012 328   176   22890   0.720   15840   0.498   22896   0.720   15843   0.498     74266     428   73838    6303   12615   11879   11885   31155      18      86      12      26      11      11      27    2319     433     873     220     219     574   71419    5856   11713   11645   11653   30551     410      14       2       3       3       2       3     344       0       0       0       0       0       0      66      14       2       3       3       2       3       0      23     337
 2012 329   177   22892   0.720   15840   0.498   22898   0.720   15843   0.498     74288     450   73838    6303   12615   11879   11885   31155      20      86      12      26      11      11      27    2319     433     873     220     219     574   71419    5856   11713   11645   11653   30551     429      14       2       3       3       2       3     360       0       0       0       0       0       0      69      14       2       3       3       2       3       0      25     337
 2012 330   178   22895   0.720   15840   0.498   22901   0.720   15843   0.498     74309     471   73838    6303   12615   11879   11885   31155      23      86      12      26      11      11      27    2319     433     873     220     219     574   71419    5856   11713   11645   11653   30551     448      14       2       3       3       2       3     376       0       0       0       0       0       0      73      14       2       3       3       2       3       0      29     337
 2012 331   179   22897   0.720   15840   0.498   22903   0.720   15843   0.498     74332     494   73838    6303   12615   11879   11885   31155      25      86      12      26      11      11      27    2319     433     873     220     219     574   71419    5856   11713   11645   11653   30551     469      14       2       3       3       2       3     392       0       0       0       0       0       0      76      14       2       3       3       2       3       0      32     337
 2012 332   180   22899   0.720   15840   0.498   22905   0.720   15843   0.498     74355     517   73838    6303   12615   11879   11885   31155      27      86      12      26      11      11      27    2319     433     873     220     219     574   71419    5856   11713   11645   11653   30551     490      14       2       3       3       2       3     410       0       0       0       0       0       0      80      14       2       3       3       2       3       0      34     338
 2012 333   181   22900   0.720   15840   0.498   22907   0.720   15843   0.498     74380     542   73838    6303   12615   11879   11885   31155      29      86      12      26      11      11      27    2319     433     873     220     219     574   71419    5856   11713   11645   11653   30551     513      14       2       3       3       2       3     430       0       0       0       0       0       0      84      14       2       3       3       2       3       0      36     338
 2012 334   182   22906   0.720   15840   0.498   22912   0.721   15843   0.498     74400     562   73838    6303   12615   11879   11885   31155      34      86      12      26      11      11      27    2319     433     873     220     219     574   71419    5856   11713   11645   11653   30551     528      14       2       3       3       2       3     441       0       0       0       0       0       0      87      14       2       3       3       2       3       0      43     338
 2012 335   183   22910   0.720   15840   0.498   22917   0.721   15843   0.498     74421     584   73837    6303   12615   11879   11885   31155      39      86      12      26      11      11      27    2319     433     873     220     219     574   71419    5856   11713   11645   11653   30551     545      14       2       3       3       2       3     454       0       0       0       0       0       0      91      14       2       3       3       2       3       0      49     338
 2012 336   184   22914   0.721   15840   0.498   22920   0.721   15843   0.498     74444     607   73837    6303   12615   11879   11885   31155      42      86      12      26      11      11      27    2319     433     873     220     219     574   71418    5855   11713   11645   11653   30551     564      14       2       3       3       2       3     470       0       0       0       0       0       0      94      14       2       3       3       2       3       0      54     338
 2012 337   185   22919   0.721   15840   0.498   22925   0.721   15843   0.498     74466     629   73837    6303   12615   11879   11885   31155      47      86      12      26      11      11      27    2319     433     873     220     219     574   71418    5855   11713   11645   11653   30551     582      14       2       3       3       2       3     483       0       0       0       0       0       0      98      14       2       3       3       2       3       0      60     339
 2012 338   186   22922   0.721   15840   0.498   22929   0.721   15843   0.498     74489     652   73837    6303   12615   11879   11885   31155      51      86      12      26      11      11      27    2319     433     873     220     219     574   71418    5855   11713   11645   11653   30551     601      14       2       3       3       2       3     499       0       0       0       0       0       0     102      14       2       3       3       2       3       0      65     339
 2012 339   187   22926   0.721   15840   0.498   22932   0.721   15843   0.498     74514     677   73837    6303   12615   11879   11885   31155      55      86      12      26      11      11      27    2319     433     873     220     219     574   71418    5855   11713   11645   11653   30551     622      14       2       3       3       2       3     516       0       0       0       0       0       0     106      14       2       3       3       2       3       0      69     339
 2012 340   188   22930   0.721   15839   0.498   22937   0.721   15843   0.498     74537     700   73837    6303   12615   11879   11885   31155      59      86      12      26      11      11      27    2319     434     873     220     219     574   71418    5855   11713   11645   11653   30551     641      14       2       3       3       2       3     532       0       0       0       0       0       0     110      14       2       3       3       2       3       0      75     339
 2012 341   189   22935   0.721   15839   0.498   22941   0.721   15843   0.498     74560     724   73837    6303   12615   11879   11885   31154      64      86      12      26      11      11      27    2319     434     873     220     219     574   71418    5855   11713   11645   11653   30551     660      14       2       3       3       2       3     546       0       0       0       0       0       0     114      14       2       3       3       2       3       0      81     339
 2012 342   190   22940   0.721   15839   0.498   22946   0.722   15843   0.498     74584     747   73837    6303   12615   11879   11885   31154      69      86      12      26      11      11      27    2319     434     873     220     219     574   71418    5855   11713   11645   11653   30551     678      14       2       3       3       2       3     561       0       0       0       0       0       0     118      14       2       3       3       2       3       0      88     340
 2012 343   191   22944   0.722   15839   0.498   22950   0.722   15843   0.498     74609     772   73837    6303   12615   11879   11885   31154      73      86      12      26      11      11      27    2319     434     873     220     219     574   71418    5855   11713   11645   11653   30551     699      14       2       3       3       2       3     577       0       0       0       0       0       0     122      14       2       3       3       2       3       0      93     340
 2012 344   192   22947   0.722   15839   0.498   22954   0.722   15843   0.498     74635     798   73837    6303   12615   11879   11885   31154      76      86      12      26      11      11      27    2319     434     873     220     219     574   71418    5855   11713   11645   11653   30551     722      14       2       3       3       2       3     596       0       0       0       0       0       0     126      14       2       3       3       2       3       0      98     340
 2012 345   193   22950   0.722   15839   0.498   22956   0.722   15843   0.498     74662     825   73837    6303   12615   11879   11885   31154      79      86      12      26      11      11      27    2319     434     873     220     219     574   71418    5855   11713   11645   11653   30551     746      14       2       3       3       2       3     616       0       0       0       0       0       0     130      14       2       3       3       2       3       0     102     340
 2012 346   194   22952   0.722   15839   0.498   22959   0.722   15843   0.498     74690     853   73837    6303   12615   11879   11885   31154      81      86      12      26      11      11      27    2319     434     873     220     219     574   71418    5855   11713   11645   11653   30551     772      14       2       3       3       2       3     638       0       0       0       0       0       0     135      14       2       3       3       2       3       0     104     340
 2012 347   195   22956   0.722   15839   0.498   22962   0.722   15843   0.498     74717     880   73837    6303   12615   11879   11885   31154      85      86      12      26      11      11      27    2320     434     873     220     219     574   71418    5855   11713   11645   11653   30551     795      14       2       3       3       2       3     656       0       0       0       0       0       0     139      14       2       3       3       2       3       0     109     340
 2012 348   196   22959   0.722   15839   0.498   22965   0.722   15843   0.498     74744     907   73837    6303   12615   11879   11885   31154      88      86      12      26      11      11      27    2320     434     873     220     219     574   71418    5855   11713   11645   11653   30551     820      14       2       3       3       2       3     677       0       0       0       0       0       0     143      14       2       3       3       2       3       0     113     340
 2012 349   197   22961   0.722   15839   0.498   22968   0.722   15843   0.498     74773     936   73837    6303   12615   11879   11885   31154      90      86      12      26      11      11      27    2320     434     873     220     219     574   71418    5855   11713   11645   11653   30551     846      14       2       3       3       2       3     699       0       0       0       0       0       0     148      14       2       3       3       2       3       0     116     341
 2012 350   198   22963   0.722   15839   0.498   22969   0.722   15843   0.498     74803     966   73837    6303   12615   11879   11885   31154      92      86      12      26      11      11      27    2320     434     873     220     219     574   71418    5855   11713   11645   11653   30551     874      14       2       3       3       2       3     722       0       0       0       0       0       0     152      14       2       3       3       2       3       0     119     341
 2012 351   199   22964   0.722   15839   0.498   22971   0.722   15843   0.498     74833     997   73837    6303   12615   11879   11885   31154      93      86      12      26      11      11      27    2320     434     873     220     219     574   71418    5855   11713   11645   11653   30551     904      14       2       3       3       2       3     747       0       0       0       0       0       0     157      14       2       3       3       2       3       0     121     341
 2012 352   200   22969   0.722   15839   0.498   22976   0.723   15843   0.498     74859    1023   73837    6303   12615   11879   11885   31154      98      86      12      26      11      11      27    2320     434     873     220     219     574   71418    5855   11713   11645   11653   30551     925      14       2       3       3       2       3     764       0       0       0       0       0       0     161      14       2       3       3       2       3       0     127     341
 2012 353   201   22974   0.722   15839   0.498   22980   0.723   15843   0.498     74887    1050   73837    6304   12615   11879   11885   31154     102      86      12      26      11      11      27    2320     434     873     220     219     574   71417    5855   11713   11645   11653   30551     948      14       2       3       3       2       3     782       0       0       0       0       0       0     166      14       2       3       3       2       3       0     132     341
 2012 354   202   22977   0.723   15839   0.498   22983   0.723   15843   0.498     74915    1078   73837    6304   12615   11879   11885   31154     105      86      12      26      11      11      27    2320     435     873     220     219     574   71417    5855   11713   11645   11653   30551     973      14       2       3       3       2       3     803       0       0       0       0       0       0     170      14       2       3       3       2       3       0     137     341
 2012 355   203   22979   0.723   15839   0.498   22986   0.723   15843   0.498     74911    1075   73837    6304   12615   11879   11885   31154     108      86      12      26      11      11      27    2320     435     873     220     219     574   71417    5855   11713   11645   11653   30551     967      14       2       3       3       2       3     797       0       0       0       0       0       0     170      14       2       3       3       2       3       0     140     341
 2012 356   204   22981   0.723   15839   0.498   22987   0.723   15843   0.498     74909    1072   73837    6304   12615   11879   11885   31154     109      86      12      26      11      11      27    2320     435     872     220     219     574   71417    5855   11713   11645   11653   30551     963      14       2       3       3       2       3     793       0       0       0       0       0       0     170      14       2       3       3       2       3       0     143     341
