*SOIL-PLANT-ATMOSPHERE MODULE OUTPUT FILE

*DSSAT Cropping System Model Ver. 4.8.2.000 -release  DEC 30, 2025 00:11:04

*RUN   1        : F1 NE 4                   RICER048 CRDA1201    1
 MODEL          : RICER048 - Rice
 EXPERIMENT     : CRDA1201 WH ESSAI VARIETE DAROU PAKA 2012
 DATA PATH      :
 TREATMENT  1   : F1 NE 4                   RICER048
  
!                                                                                                                                                                                        Soil evaporation (mm/d) by soil depth (cm):
!                                                                                                                                                                                        0-5    5-15   15-30   30-45   45-60   60-80  80-100
@YEAR DOY   DAS   SRAA  TMAXA  TMINA    REFA    EOAA    EOPA    EOSA    ETAA    EPAA    ESAA    EFAA    EMAA    EOAC    ETAC    EPAC    ESAC    EFAC    EMAC    KCAA    KBSA    KEAA    ES1D    ES2D    ES3D    ES4D    ES5D    ES6D    ES7D   TRWUD   TWUPD
 2012 153     1  23.90  40.30  26.90 -99.000   9.527   0.000   9.527   5.811   0.000   5.811   0.000   0.000    9.53    5.81    0.00    5.81    0.00    0.00 -99.000 -99.000 -99.000   1.385   1.047   1.010   0.706   0.558   0.601   0.504   0.000   0.000
 2012 154     2  24.80  39.50  25.80 -99.000   9.395   0.000   9.395   0.975   0.000   0.975   0.000   0.000   18.92    6.79    0.00    6.79    0.00    0.00 -99.000 -99.000 -99.000   0.796   0.109   0.039   0.014   0.007   0.006   0.003   0.000   0.000
 2012 155     3  16.80  41.20  25.90 -99.000   6.861   0.000   6.861   0.938   0.000   0.938   0.000   0.000   25.78    7.72    0.00    7.72    0.00    0.00 -99.000 -99.000 -99.000   0.760   0.109   0.039   0.014   0.007   0.006   0.003   0.000   0.000
 2012 156     4  24.50  40.60  28.00 -99.000   9.863   0.000   9.863   1.006   0.000   1.006   0.000   0.000   35.65    8.73    0.00    8.73    0.00    0.00 -99.000 -99.000 -99.000   0.828   0.109   0.039   0.014   0.007   0.006   0.003   0.000   0.000
 2012 157     5  25.70  40.60  26.40 -99.000  10.326   0.000  10.326   1.041   0.000   1.041   0.000   0.000   45.97    9.77    0.00    9.77    0.00    0.00 -99.000 -99.000 -99.000   0.862   0.109   0.039   0.014   0.007   0.006   0.003   0.000   0.000
 2012 158     6  26.20  40.40  26.50 -99.000  10.395   0.000  10.395   0.977   0.000   0.977   0.000   0.000   56.37   10.75    0.00   10.75    0.00    0.00 -99.000 -99.000 -99.000   0.798   0.109   0.039   0.014   0.007   0.006   0.003   0.000   0.000
 2012 159     7  25.50  41.10  25.70 -99.000  10.358   0.000  10.358   0.913   0.000   0.913   0.000   0.000   66.72   11.66    0.00   11.66    0.00    0.00 -99.000 -99.000 -99.000   0.735   0.108   0.039   0.014   0.007   0.006   0.003   0.000   0.000
 2012 160     8  23.40  38.30  25.30 -99.000   8.279   0.000   8.279   0.846   0.000   0.846   0.000   0.000   75.00   12.51    0.00   12.51    0.00    0.00 -99.000 -99.000 -99.000   0.669   0.108   0.039   0.014   0.007   0.006   0.003   0.000   0.000
 2012 161     9  23.80  40.40  26.60 -99.000   9.347   0.000   9.347   0.790   0.000   0.790   0.000   0.000   84.35   13.30    0.00   13.30    0.00    0.00 -99.000 -99.000 -99.000   0.614   0.107   0.039   0.014   0.007   0.006   0.003   0.000   0.000
 2012 162    10  24.40  41.70  27.20 -99.000  10.169   0.000  10.169   0.833   0.000   0.833   0.000   0.000   94.52   14.13    0.00   14.13    0.00    0.00 -99.000 -99.000 -99.000   0.657   0.106   0.039   0.014   0.007   0.006   0.003   0.000   0.000
 2012 163    11  22.50  39.10  27.40 -99.000   8.399   0.000   8.399   0.962   0.000   0.962   0.000   0.000  102.92   15.09    0.00   15.09    0.00    0.00 -99.000 -99.000 -99.000   0.787   0.106   0.039   0.014   0.007   0.006   0.003   0.000   0.000
 2012 164    12  23.10  37.00  25.70 -99.000   7.741   0.000   7.741   1.077   0.000   1.077   0.000   0.000  110.66   16.17    0.00   16.17    0.00    0.00 -99.000 -99.000 -99.000   0.900   0.108   0.039   0.014   0.007   0.006   0.003   0.000   0.000
 2012 165    13  21.20  35.60  25.20 -99.000   6.615   0.000   6.615   5.817   0.000   5.817   0.000   0.000  117.27   21.99    0.00   21.99    0.00    0.00 -99.000 -99.000 -99.000   1.476   1.039   0.977   0.689   0.548   0.592   0.498   0.000   0.000
 2012 166    14  21.20  36.70  25.30 -99.000   7.012   0.000   7.012   5.723   0.000   5.723   0.000   0.000  124.29   27.71    0.00   27.71    0.00    0.00 -99.000 -99.000 -99.000   1.438   1.032   0.963   0.674   0.539   0.584   0.492   0.000   0.000
 2012 167    15  22.80  36.80  27.10 -99.000   7.654   0.000   7.654   5.712   0.000   5.712   0.000   0.000  131.94   33.42    0.00   33.42    0.00    0.00 -99.000 -99.000 -99.000   1.472   1.036   0.951   0.661   0.530   0.576   0.487   0.000   0.000
 2012 168    16  23.90  37.50  25.10 -99.000   8.246   0.000   8.246   5.777   0.000   5.777   0.000   0.000  140.19   39.20    0.00   39.20    0.00    0.00 -99.000 -99.000 -99.000   1.553   1.052   0.954   0.647   0.522   0.568   0.481   0.000   0.000
 2012 169    17  22.10  31.70  25.30 -99.000   6.478   0.000   6.478   5.970   0.000   5.970   0.000   0.000  146.66   45.17    0.00   45.17    0.00    0.00 -99.000 -99.000 -99.000   1.704   1.093   0.983   0.640   0.513   0.561   0.476   0.000   0.000
 2012 170    18  19.20  30.80  25.10 -99.000   5.621   0.000   5.621   5.621   0.000   5.621   0.000   0.000  152.28   50.79    0.00   50.79    0.00    0.00 -99.000 -99.000 -99.000   1.636   1.036   0.938   0.598   0.466   0.511   0.435   0.000   0.000
 2012 171    19  22.70  33.70  24.50 -99.000   6.792   0.000   6.792   5.930   0.000   5.930   0.000   0.000  159.08   56.72    0.00   56.72    0.00    0.00 -99.000 -99.000 -99.000   1.633   1.102   1.022   0.663   0.497   0.547   0.466   0.000   0.000
 2012 172    20  24.30  31.00  25.10 -99.000   7.053   0.000   7.053   5.891   0.000   5.891   0.000   0.000  166.13   62.61    0.00   62.61    0.00    0.00 -99.000 -99.000 -99.000   1.618   1.089   1.020   0.675   0.489   0.539   0.460   0.000   0.000
 2012 173    21  20.50  35.10  24.40 -99.000   6.238   0.000   6.238   5.909   0.000   5.909   0.000   0.000  172.37   68.52    0.00   68.52    0.00    0.00 -99.000 -99.000 -99.000   1.647   1.090   1.019   0.686   0.481   0.532   0.455   0.000   0.000
 2012 174    22  21.70  37.90  25.20 -99.000   7.662   0.000   7.662   5.683   0.000   5.683   0.000   0.000  180.03   74.20    0.00   74.20    0.00    0.00 -99.000 -99.000 -99.000   1.478   1.061   1.012   0.683   0.473   0.525   0.450   0.000   0.000
 2012 175    23  19.30  31.40  24.90 -99.000   5.583   0.000   5.583   5.583   0.000   5.583   0.000   0.000  185.61   79.79    0.00   79.79    0.00    0.00 -99.000 -99.000 -99.000   1.498   1.035   0.987   0.662   0.456   0.508   0.436   0.000   0.000
 2012 176    24  15.80  31.20  23.70 -99.000   4.576   0.000   4.576   4.576   0.000   4.576   0.000   0.000  190.19   84.36    0.00   84.36    0.00    0.00 -99.000 -99.000 -99.000   1.346   0.846   0.780   0.526   0.350   0.391   0.337   0.000   0.000
 2012 177    25  17.10  31.70  23.00 -99.000   4.989   0.000   4.989   4.989   0.000   4.989   0.000   0.000  195.18   89.35    0.00   89.35    0.00    0.00 -99.000 -99.000 -99.000   1.451   0.994   0.853   0.571   0.381   0.397   0.342   0.000   0.000
 2012 178    26  24.30  34.90  23.70 -99.000   7.358   0.000   7.358   6.239   0.000   6.239   0.000   0.000  202.54   95.59    0.00   95.59    0.00    0.00 -99.000 -99.000 -99.000   1.659   1.222   1.118   0.760   0.541   0.508   0.433   0.000   0.000
 2012 179    27  23.00  30.80  24.60 -99.000   6.638   0.000   6.638   6.084   0.000   6.084   0.000   0.000  209.17  101.68    0.00  101.68    0.00    0.00 -99.000 -99.000 -99.000   1.580   1.152   1.077   0.753   0.571   0.522   0.428   0.000   0.000
 2012 180    28  17.50  31.10  23.70 -99.000   5.051   0.000   5.051   5.051   0.000   5.051   0.000   0.000  214.22  106.73    0.00  106.73    0.00    0.00 -99.000 -99.000 -99.000   1.408   0.921   0.861   0.603   0.470   0.443   0.345   0.000   0.000
 2012 181    29  17.80  30.70  24.00 -99.000   5.174   0.000   5.174   5.174   0.000   5.174   0.000   0.000  219.40  111.90    0.00  111.90    0.00    0.00 -99.000 -99.000 -99.000   1.499   0.945   0.861   0.599   0.469   0.460   0.341   0.000   0.000
 2012 182    30  20.10  29.20  24.10 -99.000   5.751   0.000   5.751   5.751   0.000   5.751   0.000   0.000  225.15  117.65    0.00  117.65    0.00    0.00 -99.000 -99.000 -99.000   1.607   1.058   0.968   0.673   0.528   0.538   0.380   0.000   0.000
 2012 183    31  20.50  29.90  23.90 -99.000   5.861   0.000   5.861   5.861   0.000   5.861   0.000   0.000  231.01  123.51    0.00  123.51    0.00    0.00 -99.000 -99.000 -99.000   1.530   1.073   1.010   0.706   0.556   0.584   0.403   0.000   0.000
 2012 184    32  17.70  30.30  23.50 -99.000   5.033   0.000   5.033   5.033   0.000   5.033   0.000   0.000  236.04  128.55    0.00  128.55    0.00    0.00 -99.000 -99.000 -99.000   1.345   0.951   0.854   0.591   0.463   0.489   0.341   0.000   0.000
 2012 185    33  17.90  30.30  23.70 -99.000   5.153   0.000   5.153   5.153   0.000   5.153   0.000   0.000  241.20  133.70    0.00  133.70    0.00    0.00 -99.000 -99.000 -99.000   1.457   0.968   0.851   0.588   0.459   0.485   0.345   0.000   0.000
 2012 186    34  20.40  30.90  23.10 -99.000   5.908   0.000   5.908   5.908   0.000   5.908   0.000   0.000  247.10  139.61    0.00  139.61    0.00    0.00 -99.000 -99.000 -99.000   1.662   1.082   0.975   0.680   0.533   0.563   0.413   0.000   0.000
 2012 187    35  20.80  31.40  23.10 -99.000   6.016   0.000   6.016   6.016   0.000   6.016   0.000   0.000  253.12  145.62    0.00  145.62    0.00    0.00 -99.000 -99.000 -99.000   1.647   1.091   0.998   0.700   0.552   0.584   0.444   0.000   0.000
 2012 188    36  20.50  33.40  23.60 -99.000   6.079   0.000   6.079   6.079   0.000   6.079   0.000   0.000  259.20  151.70    0.00  151.70    0.00    0.00 -99.000 -99.000 -99.000   1.633   1.097   1.012   0.710   0.561   0.597   0.468   0.000   0.000
 2012 189    37  18.00  30.10  24.10 -99.000   5.149   0.000   5.149   5.149   0.000   5.149   0.000   0.000  264.35  156.85    0.00  156.85    0.00    0.00 -99.000 -99.000 -99.000   1.353   0.928   0.863   0.605   0.479   0.511   0.409   0.000   0.000
 2012 190    38  18.90  29.50  23.70 -99.000   5.365   0.000   5.365   5.365   0.000   5.365   0.000   0.000  269.71  162.21    0.00  162.21    0.00    0.00 -99.000 -99.000 -99.000   1.491   0.958   0.881   0.614   0.484   0.518   0.418   0.000   0.000
 2012 191    39  20.50  30.70  23.80 -99.000   5.946   0.000   5.946   5.946   0.000   5.946   0.000   0.000  275.66  168.16    0.00  168.16    0.00    0.00 -99.000 -99.000 -99.000   1.699   1.094   0.966   0.665   0.520   0.553   0.449   0.000   0.000
 2012 192    40  24.00  30.90  23.80 -99.000   6.979   0.000   6.979   6.474   0.000   6.474   0.000   0.000  282.64  174.63    0.00  174.63    0.00    0.00 -99.000 -99.000 -99.000   1.792   1.200   1.071   0.736   0.573   0.606   0.496   0.000   0.000
 2012 193    41  22.80  30.60  23.60 -99.000   6.562   0.000   6.562   6.307   0.000   6.307   0.000   0.000  289.20  180.94    0.00  180.94    0.00    0.00 -99.000 -99.000 -99.000   1.687   1.147   1.055   0.734   0.574   0.607   0.502   0.000   0.000
 2012 194    42  13.80  29.90  23.70 -99.000   3.938   0.000   3.938   3.938   0.000   3.938   0.000   0.000  293.14  184.88    0.00  184.88    0.00    0.00 -99.000 -99.000 -99.000   1.071   0.725   0.653   0.452   0.354   0.374   0.310   0.000   0.000
 2012 195    43  21.20  30.90  24.00 -99.000   6.186   0.000   6.186   6.186   0.000   6.186   0.000   0.000  299.32  191.06    0.00  191.06    0.00    0.00 -99.000 -99.000 -99.000   1.738   1.150   1.014   0.697   0.543   0.571   0.474   0.000   0.000
 2012 196    44  20.30  29.40  23.50 -99.000   5.789   0.000   5.789   5.789   0.000   5.789   0.000   0.000  305.11  196.85    0.00  196.85    0.00    0.00 -99.000 -99.000 -99.000   1.560   1.114   0.971   0.661   0.511   0.532   0.441   0.000   0.000
 2012 197    45  17.60  29.10  23.30 -99.000   5.000   0.000   5.000   5.000   0.000   5.000   0.000   0.000  310.11  201.85    0.00  201.85    0.00    0.00 -99.000 -99.000 -99.000   1.311   0.928   0.852   0.590   0.456   0.472   0.391   0.000   0.000
 2012 198    46  20.10  29.50  22.90 -99.000   5.690   0.000   5.690   5.690   0.000   5.690   0.000   0.000  315.80  207.54    0.00  207.54    0.00    0.00 -99.000 -99.000 -99.000   1.482   1.028   0.958   0.674   0.532   0.555   0.460   0.000   0.000
 2012 199    47  21.50  30.60  23.10 -99.000   6.166   0.000   6.166   6.166   0.000   6.166   0.000   0.000  321.97  213.71    0.00  213.71    0.00    0.00 -99.000 -99.000 -99.000   1.641   1.093   1.026   0.722   0.573   0.606   0.505   0.000   0.000
 2012 200    48  19.00  32.00  22.80 -99.000   5.520   0.000   5.520   5.520   0.000   5.520   0.000   0.000  327.49  219.23    0.00  219.23    0.00    0.00 -99.000 -99.000 -99.000   1.443   0.978   0.923   0.649   0.516   0.550   0.461   0.000   0.000
 2012 201    49  18.80  30.00  24.40 -99.000   5.377   0.011   5.365   5.377   0.011   5.365   0.000   0.000  332.86  224.61    0.01  224.60    0.00    0.00 -99.000 -99.000 -99.000   1.377   0.953   0.903   0.635   0.504   0.539   0.453   0.001   0.301
 2012 202    50  16.40  29.60  24.50 -99.000   4.675   0.014   4.660   4.675   0.014   4.660   0.000   0.000  337.54  229.28    0.03  229.26    0.00    0.00 -99.000 -99.000 -99.000   1.234   0.826   0.777   0.543   0.430   0.462   0.388   0.001   0.301
 2012 203    51  16.00  28.80  23.60 -99.000   4.511   0.018   4.493   4.511   0.018   4.493   0.000   0.000  342.05  233.79    0.04  233.75    0.00    0.00 -99.000 -99.000 -99.000   1.242   0.796   0.739   0.513   0.404   0.433   0.365   0.002   0.300
 2012 204    52  22.80  31.10  22.10 -99.000   6.540   0.086   6.506   6.425   0.086   6.339   0.000   0.000  348.59  240.22    0.13  240.09    0.00    0.00 -99.000 -99.000 -99.000   1.784   1.127   1.038   0.718   0.563   0.602   0.506   0.009   0.300
 2012 205    53  14.60  30.00  24.00 -99.000   4.184   0.026   4.157   4.184   0.026   4.157   0.000   0.000  352.78  244.40    0.16  244.24    0.00    0.00 -99.000 -99.000 -99.000   1.134   0.797   0.688   0.469   0.364   0.384   0.321   0.003   0.300
 2012 206    54  18.50  29.60  23.30 -99.000   5.283   0.041   5.241   5.282   0.041   5.241   0.000   0.000  358.06  249.68    0.20  249.49    0.00    0.00 -99.000 -99.000 -99.000   1.435   0.989   0.880   0.598   0.461   0.481   0.398   0.004   0.301
 2012 207    55  21.50  31.40  22.90 -99.000   6.215   0.057   6.157   6.214   0.057   6.157   0.000   0.000  364.27  255.90    0.25  255.64    0.00    0.00 -99.000 -99.000 -99.000   1.669   1.150   1.028   0.710   0.551   0.574   0.475   0.006   0.302
 2012 208    56  19.80  31.10  23.90 -99.000   5.746   0.062   5.683   5.745   0.062   5.683   0.000   0.000  370.02  261.64    0.32  261.33    0.00    0.00 -99.000 -99.000 -99.000   1.530   1.082   0.945   0.652   0.508   0.528   0.438   0.006   0.304
 2012 209    57  20.40  31.70  23.90 -99.000   5.959   0.075   5.883   5.958   0.075   5.883   0.000   0.000  375.98  267.60    0.39  267.21    0.00    0.00 -99.000 -99.000 -99.000   1.563   1.149   0.981   0.674   0.524   0.543   0.450   0.008   0.307
 2012 210    58  14.80  29.70  23.80 -99.000   4.227   0.061   4.164   4.226   0.061   4.164   0.000   0.000  380.21  271.83    0.45  271.37    0.00    0.00 -99.000 -99.000 -99.000   1.108   0.791   0.697   0.482   0.375   0.389   0.322   0.006   0.310
 2012 211    59  20.70  28.60  23.60 -99.000   5.844   0.095   5.747   5.842   0.095   5.747   0.000   0.000  386.05  277.67    0.55  277.12    0.00    0.00 -99.000 -99.000 -99.000   1.559   1.062   0.951   0.663   0.521   0.541   0.450   0.010   0.313
 2012 212    60  21.20  30.20  22.90 -99.000   6.041   0.110   5.929   6.039   0.110   5.929   0.000   0.000  392.09  283.71    0.66  283.05    0.00    0.00 -99.000 -99.000 -99.000   1.598   1.067   0.981   0.689   0.546   0.572   0.477   0.011   0.316
 2012 213    61  21.70  31.00  23.60 -99.000   6.246   0.126   6.117   6.243   0.126   6.117   0.000   0.000  398.34  289.95    0.78  289.17    0.00    0.00 -99.000 -99.000 -99.000   1.658   1.084   1.008   0.709   0.563   0.595   0.499   0.013   0.326
 2012 214    62  10.80  28.80  24.00 -99.000   3.043   0.073   2.969   3.041   0.073   2.969   0.000   0.000  401.38  292.99    0.86  292.13    0.00    0.00 -99.000 -99.000 -99.000   0.819   0.529   0.485   0.340   0.270   0.286   0.240   0.007   0.337
 2012 215    63  22.60  29.60  23.70 -99.000   6.444   0.167   6.273   6.440   0.167   6.273   0.000   0.000  407.82  299.43    1.02  298.41    0.00    0.00 -99.000 -99.000 -99.000   1.754   1.127   1.023   0.712   0.562   0.595   0.499   0.017   0.340
 2012 216    64  20.40  31.10  22.10 -99.000   5.792   0.171   5.618   5.789   0.171   5.618   0.000   0.000  413.62  305.22    1.19  304.02    0.00    0.00 -99.000 -99.000 -99.000   1.534   1.001   0.927   0.647   0.511   0.542   0.455   0.017   0.343
 2012 217    65  17.40  30.00  24.20 -99.000   4.961   0.164   4.792   4.957   0.164   4.792   0.000   0.000  418.58  310.18    1.36  308.82    0.00    0.00 -99.000 -99.000 -99.000   1.292   0.902   0.808   0.548   0.425   0.445   0.372   0.016   0.348
 2012 218    66  22.40  31.00  23.90 -99.000   6.452   0.244   6.205   6.448   0.244   6.205   0.000   0.000  425.03  316.62    1.60  315.02    0.00    0.00 -99.000 -99.000 -99.000   1.632   1.223   1.061   0.714   0.547   0.563   0.466   0.024   0.352
 2012 219    67  22.20  29.30  23.50 -99.000   6.242   0.263   5.973   6.236   0.263   5.973   0.000   0.000  431.27  322.86    1.87  320.99    0.00    0.00 -99.000 -99.000 -99.000   1.556   1.095   1.011   0.711   0.555   0.572   0.473   0.026   0.356
 2012 220    68  24.80  30.80  22.60 -99.000   6.999   0.517   6.662   6.992   0.517   6.475   0.000   0.000  438.27  329.85    2.38  327.47    0.00    0.00 -99.000 -99.000 -99.000   1.656   1.158   1.091   0.773   0.615   0.645   0.537   0.052   0.362
 2012 221    69  21.30  29.90  23.90 -99.000   5.977   0.313   5.656   5.968   0.313   5.656   0.000   0.000  444.25  335.82    2.70  333.13    0.00    0.00 -99.000 -99.000 -99.000   1.491   1.014   0.939   0.663   0.527   0.556   0.466   0.031   0.369
 2012 222    70  10.70  28.00  24.00 -99.000   2.965   0.172   2.789   2.960   0.172   2.789   0.000   0.000  447.21  338.78    2.87  335.91    0.00    0.00 -99.000 -99.000 -99.000   0.754   0.502   0.460   0.321   0.255   0.270   0.227   0.017   0.377
 2012 223    71  24.40  30.70  23.00 -99.000   6.890   0.433   6.445   6.878   0.433   6.445   0.000   0.000  454.10  345.66    3.30  342.36    0.00    0.00 -99.000 -99.000 -99.000   1.785   1.150   1.056   0.737   0.582   0.617   0.518   0.043   0.385
 2012 224    72  20.40  29.70  22.90 -99.000   5.687   0.388   5.294   5.682   0.388   5.294   0.000   0.000  459.79  351.34    3.69  347.65    0.00    0.00 -99.000 -99.000 -99.000   1.436   1.005   0.873   0.600   0.470   0.495   0.415   0.039   0.390
 2012 225    73  21.10  29.00  24.10 -99.000   5.889   0.440   5.444   5.884   0.440   5.444   0.000   0.000  465.68  357.23    4.13  353.10    0.00    0.00 -99.000 -99.000 -99.000   1.473   1.034   0.908   0.621   0.483   0.505   0.420   0.044   0.401
 2012 226    74  17.70  29.10  23.20 -99.000   4.905   0.390   4.510   4.900   0.390   4.510   0.000   0.000  470.58  362.13    4.52  357.61    0.00    0.00 -99.000 -99.000 -99.000   1.209   0.863   0.752   0.518   0.402   0.419   0.348   0.039   0.412
 2012 227    75  19.30  29.00  23.50 -99.000   5.355   0.443   4.898   5.341   0.443   4.898   0.000   0.000  475.94  367.47    4.96  362.50    0.00    0.00 -99.000 -99.000 -99.000   1.295   0.963   0.820   0.562   0.435   0.450   0.373   0.044   0.424
 2012 228    76  18.30  30.70  22.80 -99.000   5.134   0.458   4.668   5.127   0.458   4.668   0.000   0.000  481.07  372.59    5.42  367.17    0.00    0.00 -99.000 -99.000 -99.000   1.234   0.889   0.785   0.542   0.422   0.435   0.361   0.046   0.435
 2012 229    77  20.60  28.60  24.00 -99.000   5.693   0.539   5.145   5.684   0.539   5.145   0.000   0.000  486.77  378.28    5.96  372.32    0.00    0.00 -99.000 -99.000 -99.000   1.370   0.964   0.857   0.597   0.469   0.485   0.403   0.054   0.448
 2012 230    78  21.50  27.50  23.40 -99.000   5.831   0.581   5.232   5.813   0.581   5.232   0.000   0.000  492.60  384.09    6.54  377.55    0.00    0.00 -99.000 -99.000 -99.000   1.399   0.970   0.867   0.606   0.478   0.498   0.415   0.058   0.460
 2012 231    79   9.80  26.40  23.60 -99.000   2.624   0.280   2.335   2.615   0.280   2.335   0.000   0.000  495.22  386.71    6.82  379.89    0.00    0.00 -99.000 -99.000 -99.000   0.633   0.423   0.385   0.270   0.213   0.224   0.187   0.028   0.475
 2012 232    80  22.30  29.70  23.40 -99.000   6.198   0.697   5.490   6.186   0.697   5.489   0.000   0.000  501.42  392.89    7.52  385.38    0.00    0.00 -99.000 -99.000 -99.000   1.524   0.992   0.895   0.626   0.495   0.521   0.436   0.070   0.491
 2012 233    81  19.60  30.00  23.90 -99.000   5.449   0.653   4.784   5.436   0.653   4.783   0.000   0.000  506.87  398.33    8.17  390.16    0.00    0.00 -99.000 -99.000 -99.000   1.286   0.897   0.789   0.548   0.431   0.453   0.380   0.065   0.501
 2012 234    82  13.40  30.00  24.10 -99.000   3.729   0.468   3.253   3.722   0.468   3.253   0.000   0.000  510.60  402.05    8.64  393.41    0.00    0.00 -99.000 -99.000 -99.000   0.871   0.623   0.539   0.372   0.291   0.304   0.254   0.047   0.519
 2012 235    83  14.20  28.30  23.80 -99.000   3.875   0.502   3.362   3.864   0.502   3.362   0.000   0.000  514.47  405.91    9.14  396.77    0.00    0.00 -99.000 -99.000 -99.000   0.897   0.651   0.561   0.385   0.299   0.311   0.259   0.050   0.537
 2012 236    84  15.00  29.10  23.30 -99.000   4.108   0.555   3.543   4.098   0.555   3.543   0.000   0.000  518.58  410.01    9.69  400.32    0.00    0.00 -99.000 -99.000 -99.000   0.939   0.680   0.594   0.409   0.318   0.329   0.273   0.055   0.551
 2012 237    85  17.80  30.10  22.80 -99.000   4.902   0.685   4.202   4.887   0.685   4.202   0.000   0.000  523.48  414.90   10.38  404.52    0.00    0.00 -99.000 -99.000 -99.000   1.121   0.787   0.699   0.488   0.382   0.396   0.329   0.069   0.566
 2012 238    86  14.30  28.70  23.10 -99.000   3.879   0.566   3.303   3.868   0.566   3.302   0.000   0.000  527.36  418.77   10.95  407.82    0.00    0.00 -99.000 -99.000 -99.000   0.872   0.630   0.548   0.382   0.300   0.311   0.259   0.057   0.582
 2012 239    87  19.90  27.60  23.80 -99.000   5.368   0.777   4.575   5.350   0.777   4.573   0.000   0.000  532.73  424.12   11.72  412.39    0.00    0.00 -99.000 -99.000 -99.000   1.196   0.891   0.768   0.528   0.412   0.425   0.354   0.078   0.601
 2012 240    88  21.60  29.90  23.10 -99.000   5.935   0.863   5.062   5.923   0.863   5.060   0.000   0.000  538.66  430.04   12.58  417.45    0.00    0.00 -99.000 -99.000 -99.000   1.326   0.919   0.850   0.599   0.472   0.488   0.406   0.086   0.618
 2012 241    89  23.90  29.80  23.20 -99.000   6.548   0.943   5.590   6.530   0.943   5.588   0.000   0.000  545.21  436.57   13.53  423.04    0.00    0.00 -99.000 -99.000 -99.000   1.467   0.993   0.928   0.659   0.526   0.552   0.463   0.094   0.639
 2012 242    90  20.40  30.30  23.10 -99.000   5.606   0.806   4.790   5.594   0.806   4.788   0.000   0.000  550.82  442.16   14.33  427.83    0.00    0.00 -99.000 -99.000 -99.000   1.273   0.839   0.793   0.560   0.447   0.475   0.400   0.081   0.661
 2012 243    91  23.10  29.60  23.60 -99.000   6.332   0.906   5.415   6.318   0.906   5.411   0.000   0.000  557.15  448.48   15.24  433.24    0.00    0.00 -99.000 -99.000 -99.000   1.448   0.950   0.894   0.630   0.502   0.536   0.453   0.091   0.684
 2012 244    92  20.30  27.80  23.40 -99.000   5.432   0.770   4.649   5.416   0.770   4.646   0.000   0.000  562.58  453.90   16.01  437.89    0.00    0.00 -99.000 -99.000 -99.000   1.268   0.816   0.763   0.535   0.425   0.455   0.384   0.077   0.704
 2012 245    93  17.70  28.90  22.90 -99.000   4.804   0.676   4.115   4.788   0.676   4.112   0.000   0.000  567.39  458.68   16.69  442.00    0.00    0.00 -99.000 -99.000 -99.000   1.164   0.733   0.667   0.463   0.365   0.391   0.329   0.068   0.726
 2012 246    94  17.00  27.20  23.00 -99.000   4.538   0.634   3.891   4.522   0.634   3.887   0.000   0.000  571.92  463.21   17.32  445.89    0.00    0.00 -99.000 -99.000 -99.000   1.092   0.717   0.635   0.437   0.341   0.362   0.304   0.063   0.746
 2012 247    95  18.70  30.20  21.90 -99.000   5.119   0.717   4.393   5.105   0.717   4.388   0.000   0.000  577.04  468.31   18.04  450.27    0.00    0.00 -99.000 -99.000 -99.000   1.209   0.838   0.724   0.495   0.384   0.403   0.336   0.072   0.757
 2012 248    96  19.20  29.80  23.10 -99.000   5.276   0.738   4.531   5.264   0.738   4.526   0.000   0.000  582.32  473.58   18.78  454.80    0.00    0.00 -99.000 -99.000 -99.000   1.214   0.890   0.755   0.514   0.397   0.413   0.343   0.074   0.767
 2012 249    97  19.40  28.20  23.80 -99.000   5.267   0.734   4.528   5.255   0.734   4.521   0.000   0.000  587.59  478.83   19.51  459.32    0.00    0.00 -99.000 -99.000 -99.000   1.185   0.888   0.767   0.526   0.403   0.413   0.341   0.073   0.778
 2012 250    98  16.80  27.30  23.90 -99.000   4.521   0.625   3.890   4.509   0.625   3.884   0.000   0.000  592.11  483.34   20.14  463.20    0.00    0.00 -99.000 -99.000 -99.000   0.997   0.748   0.661   0.460   0.357   0.365   0.297   0.063   0.789
 2012 251    99  17.50  29.70  23.00 -99.000   4.807   0.663   4.140   4.795   0.663   4.133   0.000   0.000  596.91  488.14   20.80  467.34    0.00    0.00 -99.000 -99.000 -99.000   1.054   0.787   0.694   0.487   0.385   0.400   0.325   0.066   0.800
 2012 252   100  24.00  30.50  22.80 -99.000   6.638   0.908   5.722   6.619   0.908   5.711   0.000   0.000  603.55  494.75   21.71  473.05    0.00    0.00 -99.000 -99.000 -99.000   1.399   1.026   0.967   0.693   0.555   0.583   0.488   0.091   0.809
 2012 253   101  21.40  31.10  22.10 -99.000   5.868   0.806   5.063   5.859   0.806   5.053   0.000   0.000  609.42  500.61   22.51  478.10    0.00    0.00 -99.000 -99.000 -99.000   1.211   0.894   0.857   0.615   0.498   0.530   0.449   0.081   0.818
 2012 254   102  20.10  29.90  24.10 -99.000   5.516   0.750   4.763   5.503   0.750   4.753   0.000   0.000  614.94  506.12   23.26  482.85    0.00    0.00 -99.000 -99.000 -99.000   1.173   0.832   0.802   0.570   0.460   0.494   0.421   0.075   0.830
 2012 255   103  24.80  30.60  23.90 -99.000   6.855   0.931   5.926   6.843   0.931   5.912   0.000   0.000  621.79  512.96   24.19  488.77    0.00    0.00 -99.000 -99.000 -99.000   1.494   1.036   0.994   0.702   0.562   0.607   0.517   0.093   0.840
 2012 256   104  22.30  29.60  23.90 -99.000   6.087   0.823   5.267   6.077   0.823   5.253   0.000   0.000  627.88  519.04   25.02  494.02    0.00    0.00 -99.000 -99.000 -99.000   1.307   0.927   0.893   0.627   0.499   0.541   0.459   0.082   0.849
 2012 257   105  16.30  29.70  23.40 -99.000   4.433   0.596   3.840   4.424   0.596   3.829   0.000   0.000  632.31  523.46   25.61  497.85    0.00    0.00 -99.000 -99.000 -99.000   1.012   0.674   0.640   0.445   0.352   0.383   0.323   0.060   0.860
 2012 258   106  21.60  28.50  23.80 -99.000   5.874   0.786   5.093   5.864   0.786   5.077   0.000   0.000  638.18  529.32   26.40  502.92    0.00    0.00 -99.000 -99.000 -99.000   1.414   0.898   0.835   0.577   0.450   0.489   0.413   0.079   0.870
 2012 259   107  18.70  29.10  23.70 -99.000   5.098   0.680   4.424   5.090   0.680   4.410   0.000   0.000  643.28  534.41   27.08  507.33    0.00    0.00 -99.000 -99.000 -99.000   1.173   0.791   0.742   0.513   0.398   0.430   0.363   0.068   0.877
 2012 260   108  23.20  30.60  22.30 -99.000   6.347   0.842   5.514   6.337   0.842   5.495   0.000   0.000  649.63  540.75   27.92  512.83    0.00    0.00 -99.000 -99.000 -99.000   1.427   0.989   0.936   0.651   0.499   0.539   0.456   0.084   0.886
 2012 261   109  23.80  31.20  23.30 -99.000   6.582   0.869   5.725   6.573   0.869   5.704   0.000   0.000  656.21  547.32   28.79  518.53    0.00    0.00 -99.000 -99.000 -99.000   1.498   1.023   0.970   0.676   0.511   0.555   0.471   0.087   0.894
 2012 262   110  12.50  29.40  24.10 -99.000   3.421   0.450   2.979   3.417   0.450   2.967   0.000   0.000  659.63  550.74   29.24  521.50    0.00    0.00 -99.000 -99.000 -99.000   0.820   0.554   0.495   0.340   0.256   0.272   0.231   0.045   0.903
 2012 263   111  12.50  28.90  22.90 -99.000   3.409   0.444   2.972   3.403   0.444   2.959   0.000   0.000  663.04  554.14   29.68  524.46    0.00    0.00 -99.000 -99.000 -99.000   0.828   0.586   0.495   0.332   0.249   0.257   0.211   0.044   0.911
 2012 264   112  11.10  29.50  23.30 -99.000   3.056   0.395   2.667   3.050   0.395   2.655   0.000   0.000  666.10  557.19   30.08  527.11    0.00    0.00 -99.000 -99.000 -99.000   0.717   0.532   0.451   0.303   0.230   0.234   0.188   0.040   0.916
 2012 265   113  17.10  29.60  23.00 -99.000   4.706   0.602   4.111   4.694   0.602   4.091   0.000   0.000  670.80  561.89   30.68  531.21    0.00    0.00 -99.000 -99.000 -99.000   1.090   0.806   0.693   0.473   0.362   0.369   0.299   0.060   0.919
 2012 266   114  15.00  28.80  23.60 -99.000   4.103   0.520   3.589   4.091   0.520   3.571   0.000   0.000  674.90  565.98   31.20  534.78    0.00    0.00 -99.000 -99.000 -99.000   0.944   0.681   0.601   0.418   0.324   0.332   0.271   0.052   0.923
 2012 267   115  19.50  29.40  22.70 -99.000   5.339   0.677   4.675   5.327   0.677   4.650   0.000   0.000  680.24  571.30   31.88  539.43    0.00    0.00 -99.000 -99.000 -99.000   1.233   0.883   0.775   0.540   0.423   0.436   0.360   0.068   0.928
 2012 268   116  20.80  30.50  23.20 -99.000   5.775   0.734   5.064   5.768   0.734   5.035   0.000   0.000  686.02  577.07   32.61  544.46    0.00    0.00 -99.000 -99.000 -99.000   1.322   0.966   0.838   0.583   0.458   0.474   0.393   0.073   0.932
 2012 269   117  21.10  29.60  23.60 -99.000   5.817   0.729   5.107   5.805   0.729   5.076   0.000   0.000  691.84  582.88   33.34  549.54    0.00    0.00 -99.000 -99.000 -99.000   1.344   0.951   0.843   0.589   0.464   0.482   0.402   0.073   0.938
 2012 270   118  24.10  31.50  23.70 -99.000   6.784   0.848   5.963   6.774   0.848   5.925   0.000   0.000  698.62  589.65   34.19  555.46    0.00    0.00 -99.000 -99.000 -99.000   1.589   1.091   0.978   0.685   0.542   0.566   0.474   0.085   0.944
 2012 271   119  23.10  29.40  23.90 -99.000   6.362   0.789   5.599   6.351   0.789   5.562   0.000   0.000  704.98  596.00   34.98  561.02    0.00    0.00 -99.000 -99.000 -99.000   1.500   1.016   0.916   0.642   0.508   0.534   0.448   0.079   0.950
 2012 272   120  20.50  30.40  24.20 -99.000   5.722   0.705   5.042   5.712   0.705   5.007   0.000   0.000  710.70  601.71   35.68  566.03    0.00    0.00 -99.000 -99.000 -99.000   1.359   0.923   0.823   0.573   0.453   0.477   0.400   0.070   0.956
 2012 273   121  16.20  27.90  23.10 -99.000   4.371   0.526   3.857   4.355   0.526   3.828   0.000   0.000  715.07  606.07   36.21  569.86    0.00    0.00 -99.000 -99.000 -99.000   1.040   0.715   0.630   0.437   0.343   0.361   0.302   0.053   0.962
 2012 274   122  21.60  30.20  22.40 -99.000   5.954   0.727   5.261   5.947   0.727   5.220   0.000   0.000  721.03  612.02   36.94  575.08    0.00    0.00 -99.000 -99.000 -99.000   1.417   0.991   0.861   0.594   0.464   0.486   0.406   0.073   0.967
 2012 275   123  23.50  31.10  22.60 -99.000   6.538   0.792   5.785   6.530   0.792   5.738   0.000   0.000  727.57  618.55   37.73  580.82    0.00    0.00 -99.000 -99.000 -99.000   1.512   1.050   0.964   0.673   0.527   0.552   0.461   0.079   0.970
 2012 276   124  23.10  32.10  22.80 -99.000   6.467   0.777   5.730   6.458   0.777   5.681   0.000   0.000  734.03  625.01   38.50  586.50    0.00    0.00 -99.000 -99.000 -99.000   1.513   1.018   0.946   0.664   0.525   0.553   0.463   0.078   0.975
 2012 277   125  18.30  30.30  23.40 -99.000   5.074   0.601   4.502   5.063   0.601   4.462   0.000   0.000  739.11  630.07   39.10  590.96    0.00    0.00 -99.000 -99.000 -99.000   1.244   0.787   0.728   0.511   0.404   0.429   0.359   0.060   0.980
 2012 278   126  21.10  29.10  23.60 -99.000   5.795   0.683   5.149   5.785   0.683   5.101   0.000   0.000  744.90  635.85   39.79  596.06    0.00    0.00 -99.000 -99.000 -99.000   1.428   0.904   0.832   0.581   0.459   0.488   0.409   0.068   0.984
 2012 279   127  22.40  29.00  23.40 -99.000   6.120   0.720   5.447   6.115   0.720   5.394   0.000   0.000  751.02  641.97   40.51  601.46    0.00    0.00 -99.000 -99.000 -99.000   1.401   0.967   0.907   0.634   0.501   0.535   0.449   0.072   0.987
 2012 280   128  23.90  31.30  23.00 -99.000   6.617   0.773   5.898   6.611   0.773   5.838   0.000   0.000  757.64  648.58   41.28  607.29    0.00    0.00 -99.000 -99.000 -99.000   1.480   1.041   0.991   0.694   0.549   0.589   0.494   0.077   0.990
 2012 281   129  23.80  30.30  23.70 -99.000   6.559   0.756   5.855   6.549   0.756   5.793   0.000   0.000  764.20  655.13   42.04  613.09    0.00    0.00 -99.000 -99.000 -99.000   1.529   1.025   0.969   0.677   0.536   0.574   0.483   0.076   0.994
 2012 282   130  22.40  28.70  23.60 -99.000   6.084   0.698   5.440   6.078   0.698   5.380   0.000   0.000  770.28  661.21   42.74  618.47    0.00    0.00 -99.000 -99.000 -99.000   1.351   0.966   0.919   0.637   0.507   0.542   0.457   0.070   0.998
 2012 283   131  16.80  30.20  22.70 -99.000   4.569   1.071   4.092   2.105   1.071   1.034   0.000   0.000  774.85  663.31   43.81  619.50    0.00    0.00 -99.000 -99.000 -99.000   0.854   0.110   0.039   0.014   0.007   0.005   0.003   0.107   1.001
 2012 284   132  20.10  31.30  23.20 -99.000   5.535   1.282   4.965   2.248   1.282   0.966   0.000   0.000  780.39  665.56   45.09  620.47    0.00    0.00 -99.000 -99.000 -99.000   0.789   0.108   0.039   0.014   0.007   0.005   0.003   0.128   1.004
 2012 285   133  18.40  28.90  23.50 -99.000   4.931   1.140   4.423   2.046   1.140   0.906   0.000   0.000  785.32  667.60   46.23  621.37    0.00    0.00 -99.000 -99.000 -99.000   0.731   0.106   0.039   0.014   0.007   0.005   0.003   0.114   1.007
 2012 286   134  21.30  32.00  22.80 -99.000   5.860   1.357   5.256   2.241   1.357   0.884   0.000   0.000  791.18  669.85   47.58  622.26    0.00    0.00 -99.000 -99.000 -99.000   0.712   0.104   0.038   0.014   0.007   0.005   0.003   0.136   1.010
