*GROWTH ASPECTS OUTPUT FILE

*DSSAT Cropping System Model Ver. 4.8.2.000 -release  DEC 30, 2025 00:11:04

*RUN   1        : F1 NE 4                   RICER048 CRDA1201    1
 MODEL          : RICER048 - Rice
 EXPERIMENT     : CRDA1201 WH ESSAI VARIETE DAROU PAKA 2012
 DATA PATH      :
 TREATMENT  1   : F1 NE 4                   RICER048
  
!YR        Days  Days              Leaf  <--------- Dry Weight -----------> Grain Kernl              <------ Stress (0-1) ------>   Leaf  Shell  Spec  <-Canopy->  Root  <-- Root Length Density ---><Senesced Mat>   Phot  
!  and    after after  Leaf  Grow  Area  <------------ kg/Ha ------------->   per  wght  Harv Tillr  <--- Water ---->                Nit   -ing  Leaf  Hght Brdth Depth  <---- cm3/cm3 of soil -----> <--(kg/ha)-->  Therm  
!     DOY start plant   Num Stage Index  Leaf  Stem Grain  Root Panic  Crop    m2    mg  Indx   No.  Phot  Grow  Excs  Nitr Potas     %      %   Area    m     m     m    0-5  5-15 15-30 30-4545-100   Surf   Soil   Days  
@YEAR DOY   DAS   DAP  L#SD  GSTD  LAID  LWAD  SWAD  GWAD  RWAD  EWAD  CWAD  G#AD  GWGD  HIAD  T#AD  WSPD  WSGD  EWSD  NSTD  KSTD   LN%D   SH%D  SLAD  CHTD  CWID  RDPD  RL1D  RL2D  RL3D  RL4D  RL5D  SNW0C  SNW1C   DTTC  
 2012 195    43     0   0.0     0  0.00     1     1     0     1     0     1     0   0.0 0.000    60 0.000 0.000 0.000 0.000 0.000   0.00   0.00   0.0  0.00  0.00  0.02  0.00  0.00  0.00  0.00  0.00      0      0     18
 2012 196    44     1   0.0     0  0.00     1     1     0     1     0     1     0   0.0 0.000    60 0.000 0.000 0.000 0.000 0.000   0.00   0.00   0.0  0.00  0.00  0.02  0.00  0.00  0.00  0.00  0.00      0      0     36
 2012 197    45     2   0.0     0  0.00     1     1     0     1     0     1     0   0.0 0.000    60 0.000 0.000 0.000 0.000 0.000   0.00   0.00   0.0  0.00  0.00  0.02  0.00  0.00  0.00  0.00  0.00      0      0     54
 2012 198    46     3   0.0     0  0.00     1     1     0     1     0     1     0   0.0 0.000    60 0.000 0.000 0.000 0.000 0.000   0.00   0.00   0.0  0.00  0.00  0.05  0.00  0.00  0.00  0.00  0.00      0      0     72
 2012 199    47     4   0.0     0  0.00     1     1     0     1     0     1     0   0.0 0.000    60 0.000 0.000 0.000 0.000 0.000   0.00   0.00   0.0  0.00  0.00  0.07  0.00  0.00  0.00  0.00  0.00      0      0     90
 2012 200    48     5   1.0     1  0.01     2     1     0     1     0     3     0   0.0 0.000    60 0.000 0.000 0.000 0.000 0.000   0.00   0.00 279.1  0.00  0.00  0.10  1.00  0.50  0.00  0.00  0.00      0      0    108
 2012 201    49     6   1.0     1  0.01     3     1     0     1     0     4     0   0.0 0.000    60 0.000 0.000 0.000 0.000 0.000   0.00   0.00 239.3  0.00  0.00  0.10  1.00  0.50  0.00  0.00  0.00      0      0    126
 2012 202    50     7   2.0     1  0.01     5     1     0     1     0     5     0   0.0 0.000    60 0.000 0.000 0.000 0.000 0.000   0.00   0.00 221.8  0.00  0.00  0.13  1.00  0.50  0.00  0.00  0.00      0      0    144
 2012 203    51     8   2.0     1  0.01     6     1     0     2     0     7     0   0.0 0.000    60 0.000 0.000 0.000 0.000 0.000   0.00   0.00 212.1  0.00  0.00  0.17  1.00  0.50  0.00  0.00  0.00      0      0    162
 2012 204    52     9   2.0     1  0.02     8     1     0     3     0     9     0   0.0 0.000    60 0.000 0.000 0.000 0.000 0.000   0.00   0.00 205.6  0.00  0.00  0.20  1.00  0.50  0.00  0.00  0.00      0      0    180
 2012 205    53    10   3.0     1  0.02    10     1     0     3     0    11     0   0.0 0.000    60 0.000 0.000 0.000 0.000 0.000   0.00   0.00 200.9  0.00  0.00  0.23  1.00  0.50  0.00  0.00  0.00      0      0    198
 2012 206    54    11   3.0     1  0.02    12     1     0     4     0    13     0   0.0 0.000    60 0.000 0.000 0.000 0.000 0.000   0.00   0.00 197.5  0.00  0.00  0.26  0.99  0.50  0.01  0.00  0.00      0      0    216
 2012 207    55    12   4.0     1  0.03    15     1     0     6     0    15     0   0.0 0.000    60 0.000 0.000 0.000 0.000 0.000   0.00   0.00 195.0  0.00  0.00  0.29  0.99  0.50  0.01  0.00  0.00      0      0    234
 2012 208    56    13   4.0     2  0.03    17     1     0     7     0    18     0   0.0 0.000    60 0.000 0.000 0.000 0.000 0.000   0.00   0.00 190.6  0.00  0.00  0.33  0.99  0.51  0.01  0.00  0.00      0      0    252
 2012 209    57    14   4.0     2  0.04    20     1     0     9     0    22     0   0.0 0.000    60 0.000 0.000 0.000 0.000 0.000   0.00   0.00 187.0  0.00  0.00  0.36  0.99  0.51  0.02  0.00  0.00      0      0    270
 2012 210    58    15   5.0     2  0.04    23     2     0    10     0    25     0   0.0 0.000    60 0.000 0.000 0.000 0.000 0.000   0.00   0.00 184.4  0.00  0.00  0.39  0.99  0.51  0.02  0.00  0.00      0      0    288
 2012 211    59    16   5.0     2  0.05    26     2     0    13     0    28     0   0.0 0.000    60 0.000 0.000 0.000 0.000 0.000   0.00   0.00 182.4  0.00  0.00  0.42  0.99  0.51  0.03  0.01  0.00      0      0    306
 2012 212    60    17   5.0     2  0.05    29     3     0    17     0    32     0   0.0 0.000    60 0.000 0.000 0.000 0.000 0.000   0.00   0.00 180.7  0.00  0.00  0.46  0.99  0.52  0.03  0.02  0.00      0      0    324
 2012 213    61    18   6.0     2  0.06    33     6     0    19     0    40     0   0.0 0.000   104 0.000 0.000 0.000 0.000 0.000   0.00   0.00 189.9  0.00  0.00  0.49  1.00  0.52  0.04  0.02  0.00      0      0    342
 2012 214    62    19   6.0     2  0.07    36     9     0    20     0    45     0   0.0 0.000   107 0.000 0.000 0.000 0.000 0.000   0.00   0.00 189.2  0.00  0.00  0.52  0.99  0.52  0.05  0.03  0.00      0      0    360
 2012 215    63    20   6.0     2  0.08    41    13     0    22     0    54     0   0.0 0.000   110 0.000 0.000 0.000 0.000 0.000   0.00   0.00 188.3  0.00  0.00  0.55  0.99  0.52  0.05  0.03  0.01      0      0    378
 2012 216    64    21   7.0     3  0.09    47    17     0    23     0    64     0   0.0 0.000   113 0.000 0.000 0.000 0.000 0.000   0.00   0.00 186.3  0.00  0.00  0.58  0.99  0.52  0.05  0.03  0.01      0      0    396
 2012 217    65    22   7.0     3  0.10    53    21     0    25     0    74     0   0.0 0.000   114 0.000 0.000 0.000 0.000 0.000   0.00   0.00 184.6  0.00  0.00  0.62  0.99  0.52  0.05  0.04  0.01      0      0    414
 2012 218    66    23   7.0     3  0.11    60    28     0    27     0    88     0   0.0 0.000   115 0.000 0.000 0.000 0.000 0.000   0.00   0.00 183.2  0.00  0.00  0.65  0.99  0.52  0.06  0.04  0.02      0      0    432
 2012 219    67    24   7.0     3  0.12    68    35     0    30     0   103     0   0.0 0.000   117 0.000 0.000 0.000 0.000 0.000   0.00   0.00 182.0  0.00  0.00  0.68  0.99  0.53  0.06  0.04  0.02      0      0    450
 2012 220    68    25   8.0     3  0.14    76    45     0    33     0   121     0   0.0 0.000   118 0.000 0.000 0.000 0.000 0.000   0.00   0.00 181.0  0.00  0.00  0.71  0.99  0.53  0.07  0.05  0.02      0      0    468
 2012 221    69    26   8.0     3  0.15    85    55     0    35     0   140     0   0.0 0.000   118 0.000 0.000 0.000 0.000 0.000   0.00   0.00 180.1  0.00  0.00  0.75  0.99  0.53  0.07  0.05  0.03      0      0    486
 2012 222    70    27   8.0     3  0.17    92    60     0    37     0   153     0   0.0 0.000   118 0.000 0.000 0.000 0.000 0.000   0.00   0.00 179.4  0.00  0.00  0.78  0.99  0.53  0.07  0.06  0.03      0      0    503
 2012 223    71    28   9.0     3  0.18    99    77     0    41     0   176     0   0.0 0.000   118 0.000 0.000 0.000 0.000 0.000   0.00   0.00 178.5  0.00  0.00  0.81  0.99  0.53  0.08  0.06  0.04      0      0    521
 2012 224    72    29   9.0     3  0.19   109    90     0    45     0   199     0   0.0 0.000   118 0.000 0.000 0.000 0.000 0.000   0.00   0.00 177.8  0.00  0.00  0.84  0.99  0.54  0.08  0.07  0.04      0      0    539
 2012 225    73    30   9.0     3  0.21   117   107     0    49     0   224     0   0.0 0.000   118 0.000 0.000 0.000 0.000 0.000   0.00   0.00 177.1  0.00  0.00  0.87  0.99  0.54  0.09  0.07  0.05      0      0    557
 2012 226    74    31   9.0     3  0.22   124   124     0    52     0   248     0   0.0 0.000   118 0.000 0.000 0.000 0.000 0.000   0.00   0.00 176.3  0.00  0.00  0.91  0.99  0.54  0.10  0.08  0.06      0      0    575
 2012 227    75    32  10.0     3  0.23   132   142     0    57     0   274     0   0.0 0.000   118 0.000 0.000 0.000 0.000 0.000   0.00   0.00 175.7  0.00  0.00  0.94  0.99  0.55  0.10  0.09  0.06      0      0    593
 2012 228    76    33  10.0     3  0.25   141   160     0    61     0   301     0   0.0 0.000   118 0.000 0.000 0.000 0.000 0.000   0.00   0.00 175.0  0.00  0.00  0.97  0.99  0.55  0.11  0.09  0.07      0      0    611
 2012 229    77    34  10.0     3  0.26   151   181     0    65     0   332     0   0.0 0.000   118 0.000 0.000 0.000 0.000 0.000   0.00   0.00 174.5  0.00  0.00  1.00  1.00  0.56  0.11  0.10  0.08      0      0    629
 2012 230    78    35  10.0     3  0.28   162   203     0    71     0   365     0   0.0 0.000   118 0.000 0.000 0.000 0.000 0.000   0.00   0.00 174.0  0.00  0.00  1.00  1.00  0.56  0.12  0.11  0.08      0      0    646
 2012 231    79    36  11.0     3  0.29   169   218     0    74     0   387     0   0.0 0.000   118 0.000 0.000 0.000 0.000 0.000   0.00   0.00 173.3  0.00  0.00  1.00  1.00  0.57  0.13  0.11  0.09      0      0    662
 2012 232    80    37  11.0     3  0.31   181   243     0    80     0   425     0   0.0 0.000   118 0.000 0.000 0.000 0.000 0.000   0.00   0.00 172.9  0.00  0.00  1.00  1.00  0.57  0.14  0.12  0.10      0      0    679
 2012 233    81    38  11.0     3  0.33   190   271     0    85     0   461     0   0.0 0.000   118 0.000 0.000 0.000 0.000 0.000   0.00   0.00 172.2  0.00  0.00  1.00  1.01  0.58  0.14  0.13  0.11      1      0    696
 2012 234    82    39  11.0     3  0.34   198   293     0    90     0   490     0   0.0 0.000   118 0.000 0.000 0.000 0.000 0.000   0.00   0.00 171.5  0.00  0.00  1.00  1.01  0.58  0.15  0.14  0.11      1      0    714
 2012 235    83    40  12.0     3  0.35   206   316     0    94     0   522     0   0.0 0.000   118 0.000 0.000 0.000 0.000 0.000   0.00   0.00 170.8  0.00  0.00  1.00  1.01  0.59  0.16  0.14  0.12      1      0    731
 2012 236    84    41  12.0     3  0.37   215   341     0   100     0   557     0   0.0 0.000   118 0.000 0.000 0.000 0.000 0.000   0.00   0.00 170.0  0.00  0.00  1.00  1.02  0.59  0.17  0.15  0.13      1      0    748
 2012 237    85    42  12.0     3  0.38   225   371     0   105     0   596     0   0.0 0.000   118 0.000 0.000 0.000 0.000 0.000   0.00   0.00 169.3  0.00  0.00  1.00  1.02  0.60  0.17  0.16  0.14      1      0    765
 2012 238    86    43  12.0     4  0.38   225   406     0   111     0   631     0   0.0 0.000   118 0.000 0.000 0.000 0.000 0.000   0.00   0.00 168.5  0.00  0.00  1.00  1.03  0.61  0.18  0.17  0.15      2      0    782
 2012 239    87    44  12.0     4  0.38   225   450     0   117     0   675     0   0.0 0.000   117 0.000 0.000 0.000 0.000 0.000   0.00   0.00 167.7  0.00  0.00  1.00  1.03  0.61  0.19  0.18  0.15      2      0    799
 2012 240    88    45  12.0     4  0.38   225   495     0   124     0   720     0   0.0 0.000   117 0.000 0.000 0.000 0.000 0.000   0.00   0.00 166.9  0.00  0.00  1.00  1.04  0.62  0.20  0.19  0.17      3      0    816
 2012 241    89    46  12.0     4  0.37   225   543     0   131     0   768     0   0.0 0.000   116 0.000 0.000 0.000 0.000 0.000   0.00   0.00 166.0  0.00  0.00  1.00  1.04  0.63  0.21  0.20  0.18      3      0    833
 2012 242    90    47  12.0     4  0.37   225   586     0   137     0   810     0   0.0 0.000   116 0.000 0.000 0.000 0.000 0.000   0.00   0.00 165.2  0.00  0.00  1.00  1.05  0.64  0.22  0.21  0.19      3      0    850
 2012 243    91    48  12.0     4  0.37   225   631     0   144     0   856     0   0.0 0.000   115 0.000 0.000 0.000 0.000 0.000   0.00   0.00 164.4  0.00  0.00  1.00  1.06  0.65  0.23  0.22  0.20      4      0    867
 2012 244    92    49  12.0     4  0.37   225   674     0   150     0   898     0   0.0 0.000   115 0.000 0.000 0.000 0.000 0.000   0.00   0.00 163.6  0.00  0.00  1.00  1.06  0.65  0.25  0.23  0.21      5      0    884
 2012 245    93    50  12.0     5  0.37   225   350   239   153   365   940  1597  22.9 0.255   115 0.000 0.000 0.000 0.000 0.000   0.00  65.61 162.8  0.00  0.00  1.00  1.07  0.66  0.25  0.24  0.22      5      0    901
 2012 246    94    51  12.0     5  0.36   225   388   242   156   367   980  1613  22.8 0.247   115 0.000 0.000 0.000 0.000 0.000   0.00  65.84 162.0  0.00  0.00  1.00  1.07  0.67  0.26  0.24  0.22      6      0    917
 2012 247    95    52  12.0     5  0.36   224   428   244   159   370  1022  1629  22.7 0.239   115 0.000 0.000 0.000 0.000 0.000   0.00  66.06 161.1  0.00  0.00  1.00  1.07  0.67  0.27  0.25  0.23      7      0    934
 2012 248    96    53  12.0     5  0.36   224   467   247   162   372  1064  1645  22.6 0.232   115 0.000 0.000 0.000 0.000 0.000   0.00  66.29 160.3  0.00  0.00  1.00  1.07  0.67  0.27  0.26  0.23      8      0    951
 2012 249    97    54  12.0     5  0.36   224   507   249   165   375  1106  1662  22.6 0.225   115 0.000 0.000 0.000 0.000 0.000   0.00  66.51 159.5  0.00  0.00  1.00  1.07  0.68  0.28  0.26  0.24      8      0    968
 2012 250    98    55  12.0     5  0.36   224   536   258   168   383  1143  1719  22.3 0.226   115 0.000 0.000 0.000 0.000 0.000   0.00  67.26 158.6  0.00  0.00  1.00  1.07  0.68  0.28  0.27  0.25      9      0    985
 2012 251    99    56  12.0     5  0.35   224   565   267   170   392  1181  1777  22.1 0.226   115 0.000 0.000 0.000 0.000 0.000   0.00  67.99 157.7  0.00  0.00  1.00  1.07  0.68  0.29  0.27  0.25     10      0   1002
 2012 252   100    57  12.0     5  0.35   224   601   275   174   401  1226  1834  21.8 0.224   115 0.000 0.000 0.000 0.000 0.000   0.00  68.67 156.8  0.00  0.00  1.00  1.08  0.68  0.29  0.28  0.26     11      0   1019
 2012 253   101    58  12.0     5  0.35   224   634   284   176   409  1267  1890  21.6 0.224   115 0.000 0.000 0.000 0.000 0.000   0.00  69.31 156.0  0.00  0.00  1.00  1.08  0.69  0.30  0.28  0.26     12      0   1036
 2012 254   102    59  12.0     5  0.35   224   664   292   179   418  1306  1947  21.4 0.224   115 0.000 0.000 0.000 0.000 0.000   0.00  69.94 155.0  0.00  0.00  1.00  1.08  0.69  0.30  0.29  0.27     13      0   1054
 2012 255   103    60  12.0     5  0.35   224   700   300   182   426  1350  2003  21.3 0.223   115 0.000 0.000 0.000 0.000 0.000   0.00  70.53 154.1  0.00  0.00  1.00  1.08  0.69  0.31  0.29  0.27     15      0   1072
 2012 256   104    61  12.0     5  0.34   224   732   309   185   434  1390  2058  21.1 0.222   115 0.000 0.000 0.000 0.000 0.000   0.00  71.09 153.2  0.00  0.00  1.00  1.08  0.70  0.31  0.30  0.28     16      0   1089
 2012 257   105    62  12.0     5  0.34   224   756   317   186   442  1422  2111  20.9 0.223   115 0.000 0.000 0.000 0.000 0.000   0.00  71.61 152.2  0.00  0.00  1.00  1.08  0.70  0.32  0.30  0.28     17      0   1106
 2012 258   106    63  12.0     5  0.34   224   787   324   189   450  1461  2163  20.8 0.222   115 0.000 0.000 0.000 0.000 0.000   0.00  72.10 151.2  0.00  0.00  1.00  1.08  0.70  0.32  0.31  0.29     18      0   1123
 2012 259   107    64  12.0     5  0.34   224   813   332   191   458  1495  2214  20.7 0.222   115 0.000 0.000 0.000 0.000 0.000   0.00  72.57 150.2  0.00  0.00  1.00  1.08  0.71  0.33  0.31  0.29     20      0   1140
 2012 260   108    65  12.0     5  0.33   224   844   340   193   465  1533  2263  20.5 0.221   115 0.000 0.000 0.000 0.000 0.000   0.00  73.01 149.2  0.00  0.00  1.00  1.08  0.71  0.33  0.32  0.30     21      0   1157
 2012 261   109    66  12.0     5  0.33   224   875   347   195   473  1571  2314  20.4 0.221   115 0.000 0.000 0.000 0.000 0.000   0.00  73.44 148.2  0.00  0.00  1.00  1.08  0.71  0.33  0.32  0.30     23      0   1174
 2012 262   110    67  12.0     5  0.33   224   892   354   196   480  1596  2363  20.3 0.222   115 0.000 0.000 0.000 0.000 0.000   0.00  73.85 147.1  0.00  0.00  1.00  1.08  0.71  0.34  0.32  0.31     24      0   1191
 2012 263   111    68  12.0     5  0.33   224   909   362   197   487  1620  2410  20.2 0.223   115 0.000 0.000 0.000 0.000 0.000   0.00  74.23 146.0  0.00  0.00  1.00  1.08  0.71  0.34  0.33  0.31     26      0   1208
 2012 264   112    69  12.0     5  0.32   224   925   369   197   494  1642  2457  20.1 0.224   115 0.000 0.000 0.000 0.000 0.000   0.00  74.59 144.9  0.00  0.00  1.00  1.08  0.71  0.34  0.33  0.31     28      0   1225
 2012 265   113    70  12.0     5  0.32   223   946   375   199   501  1671  2503  20.0 0.225   115 0.000 0.000 0.000 0.000 0.000   0.00  74.94 143.8  0.00  0.00  1.00  1.08  0.71  0.35  0.33  0.31     29      0   1242
 2012 266   114    71  12.0     5  0.32   223   965   382   200   508  1697  2548  19.9 0.225   115 0.000 0.000 0.000 0.000 0.000   0.00  75.28 142.6  0.00  0.00  1.00  1.08  0.72  0.35  0.33  0.32     31      0   1259
 2012 267   115    72  12.0     5  0.32   223   989   389   201   514  1727  2592  19.8 0.225   115 0.000 0.000 0.000 0.000 0.000   0.00  75.60 141.4  0.00  0.00  1.00  1.08  0.72  0.35  0.34  0.32     33      0   1276
 2012 268   116    73  12.0     5  0.31   223  1012   395   202   521  1757  2637  19.8 0.225   115 0.000 0.000 0.000 0.000 0.000   0.00  75.91 140.2  0.00  0.00  1.00  1.08  0.72  0.35  0.34  0.32     35      0   1293
 2012 269   117    74  12.0     5  0.31   223  1036   402   204   528  1787  2680  19.7 0.225   115 0.000 0.000 0.000 0.000 0.000   0.00  76.21 139.0  0.00  0.00  1.00  1.08  0.72  0.36  0.34  0.32     37      0   1310
 2012 270   118    75  12.0     5  0.31   223  1061   409   205   534  1818  2724  19.6 0.225   115 0.000 0.000 0.000 0.000 0.000   0.00  76.50 137.8  0.00  0.00  1.00  1.08  0.72  0.36  0.35  0.33     39      0   1328
 2012 271   119    76  12.0     5  0.30   223  1085   415   206   540  1849  2766  19.5 0.224   115 0.000 0.000 0.000 0.000 0.000   0.00  76.77 136.5  0.00  0.00  1.00  1.08  0.72  0.36  0.35  0.33     41      0   1345
 2012 272   120    77  12.0     5  0.30   223  1106   421   207   547  1876  2809  19.5 0.225   115 0.000 0.000 0.000 0.000 0.000   0.00  77.05 135.2  0.00  0.00  1.00  1.08  0.72  0.37  0.35  0.33     44      0   1363
 2012 273   121    78  12.0     5  0.30   223  1123   427   208   553  1899  2848  19.4 0.225   115 0.000 0.000 0.000 0.000 0.000   0.00  77.29 133.8  0.00  0.00  1.00  1.07  0.72  0.37  0.36  0.34     46      0   1380
 2012 274   122    79  12.0     5  0.30   223  1145   433   209   559  1926  2887  19.3 0.225   115 0.000 0.000 0.000 0.000 0.000   0.00  77.53 132.5  0.00  0.00  1.00  1.07  0.72  0.37  0.36  0.34     48      0   1397
 2012 275   123    80  12.0     5  0.29   223  1166   439   210   564  1954  2926  19.3 0.225   115 0.000 0.000 0.000 0.000 0.000   0.00  77.76 131.1  0.00  0.00  1.00  1.07  0.72  0.37  0.36  0.34     51      0   1414
 2012 276   124    81  12.0     5  0.29   223  1187   445   211   570  1980  2965  19.2 0.225   115 0.000 0.000 0.000 0.000 0.000   0.00  77.99 129.7  0.00  0.00  1.00  1.07  0.73  0.38  0.36  0.34     54      0   1431
 2012 277   125    82  12.0     5  0.29   223  1204   450   211   576  2002  3003  19.2 0.225   115 0.000 0.000 0.000 0.000 0.000   0.00  78.21 128.2  0.00  0.00  1.00  1.07  0.73  0.38  0.37  0.35     56      0   1448
 2012 278   126    83  12.0     5  0.28   223  1222   456   212   582  2026  3040  19.1 0.225   115 0.000 0.000 0.000 0.000 0.000   0.00  78.42 126.8  0.00  0.00  1.00  1.07  0.73  0.38  0.37  0.35     59      0   1465
 2012 279   127    84  12.0     5  0.28   222  1241   462   212   587  2051  3077  19.1 0.225   115 0.000 0.000 0.000 0.000 0.000   0.00  78.62 125.3  0.00  0.00  1.00  1.07  0.73  0.38  0.37  0.35     62      0   1482
 2012 280   128    85  12.0     5  0.28   222  1260   467   213   593  2075  3113  19.0 0.225   115 0.000 0.000 0.000 0.000 0.000   0.00  78.81 123.8  0.00  0.00  1.00  1.07  0.73  0.38  0.37  0.35     65      0   1499
 2012 281   129    86  12.0     5  0.27   222  1279   472   213   598  2099  3149  19.0 0.225   115 0.000 0.000 0.000 0.000 0.000   0.00  79.01 122.2  0.00  0.00  1.00  1.06  0.73  0.39  0.37  0.36     68      0   1516
 2012 282   130    87  12.0     5  0.27   222  1296   478   214   603  2121  3184  18.9 0.225   115 0.000 0.000 0.000 0.000 0.000   0.00  79.19 120.7  0.00  0.00  1.00  1.06  0.73  0.39  0.38  0.36     71      0   1533
 2012 283   131    88  12.0     5  0.26   219  1301   490   214   616  2136  3270  18.8 0.230   115 0.000 0.000 0.000 0.000 0.000   0.00  79.62 120.8  0.00  0.00  1.00  1.06  0.73  0.39  0.38  0.36     74      0   1550
 2012 284   132    89  12.0     6  0.26   219  1301   490   214   616  2136  3270  18.8 0.230   115 0.000 0.000 0.000 0.000 0.000   0.00  79.62 120.8  0.00  0.00  1.00  1.06  0.73  0.39  0.38  0.36     74      0   1567
 2012 285   133    90  12.0    20  0.26   219  1301   490   214   616  2136  3270  18.8 0.230   115 0.000 0.000 0.000 0.000 0.000   0.00  79.62 120.8  0.00  0.00  1.00  1.06  0.73  0.39  0.38  0.36     74      0   1567
 2012 286   134    91  12.0    20  0.26   219  1301   490   214   616  2136  3270  18.8 0.230   115 0.000 0.000 0.000 0.000 0.000   0.00  79.62 120.8  0.00  0.00  1.00  1.06  0.73  0.39  0.38  0.37     74      0   1584
