*SOIL TEMPERATURE OUTPUT FILE (DAILY)

*DSSAT Cropping System Model Ver. 4.8.2.000 -release  DEC 30, 2025 00:11:04

*RUN   1        : F1 NE 4                   RICER048 CRDA1201    1
 MODEL          : RICER048 - Rice
 EXPERIMENT     : CRDA1201 WH ESSAI VARIETE DAROU PAKA 2012
 DATA PATH      :
 TREATMENT  1   : F1 NE 4                   RICER048
  
! TAV  =    20.0
! TAMP =     0.6
!               Temperature (oC) by soil depth (cm):
!               Surface     0-5    5-15   15-30   30-45   45-60   60-80  80-100
@YEAR DOY   DAS    TS0D    TS1D    TS2D    TS3D    TS4D    TS5D    TS6D    TS7D    
 2012 153     1    33.2    33.1    32.8    32.3    31.7    31.2    30.6    30.0
 2012 154     2    33.0    32.9    32.6    32.1    31.6    31.0    30.4    29.8
 2012 155     3    33.0    32.9    32.6    32.1    31.6    31.0    30.5    29.8
 2012 156     4    33.2    33.1    32.8    32.3    31.7    31.2    30.6    30.0
 2012 157     5    33.2    33.1    32.8    32.3    31.8    31.2    30.6    30.0
 2012 158     6    33.2    33.1    32.8    32.3    31.7    31.2    30.6    29.9
 2012 159     7    33.3    33.2    32.9    32.4    31.9    31.3    30.7    30.1
 2012 160     8    33.0    32.9    32.6    32.1    31.5    31.0    30.4    29.8
 2012 161     9    32.8    32.7    32.4    31.9    31.4    30.9    30.3    29.7
 2012 162    10    33.0    32.9    32.6    32.1    31.6    31.0    30.4    29.8
 2012 163    11    33.0    32.9    32.6    32.1    31.5    31.0    30.4    29.8
 2012 164    12    32.6    32.5    32.2    31.7    31.2    30.7    30.1    29.5
 2012 165    13    32.3    32.2    31.9    31.5    31.0    30.5    29.9    29.3
 2012 166    14    31.8    31.7    31.5    31.0    30.5    30.0    29.5    28.9
 2012 167    15    31.4    31.3    31.0    30.6    30.1    29.6    29.1    28.5
 2012 168    16    31.0    30.9    30.6    30.2    29.7    29.3    28.8    28.2
 2012 169    17    30.4    30.3    30.1    29.7    29.2    28.8    28.3    27.8
 2012 170    18    29.9    29.9    29.6    29.3    28.8    28.4    28.0    27.5
 2012 171    19    29.6    29.5    29.3    28.9    28.5    28.1    27.7    27.2
 2012 172    20    28.8    28.7    28.5    28.2    27.8    27.4    27.0    26.6
 2012 173    21    28.5    28.4    28.2    27.9    27.5    27.2    26.8    26.4
 2012 174    22    29.1    29.0    28.8    28.5    28.1    27.7    27.2    26.8
 2012 175    23    29.1    29.0    28.8    28.5    28.1    27.7    27.2    26.8
 2012 176    24    28.8    28.7    28.5    28.2    27.8    27.4    27.0    26.6
 2012 177    25    28.6    28.6    28.4    28.0    27.7    27.3    26.9    26.5
 2012 178    26    28.6    28.5    28.3    28.0    27.6    27.3    26.9    26.5
 2012 179    27    27.8    27.8    27.6    27.3    27.0    26.6    26.3    25.9
 2012 180    28    27.7    27.6    27.4    27.1    26.8    26.5    26.1    25.8
 2012 181    29    27.6    27.6    27.4    27.1    26.8    26.5    26.1    25.8
 2012 182    30    27.5    27.5    27.3    27.0    26.7    26.4    26.1    25.7
 2012 183    31    27.1    27.0    26.8    26.6    26.3    26.0    25.7    25.3
 2012 184    32    26.9    26.8    26.7    26.4    26.1    25.9    25.5    25.2
 2012 185    33    26.8    26.8    26.6    26.4    26.1    25.8    25.5    25.2
 2012 186    34    26.7    26.7    26.5    26.3    26.0    25.7    25.4    25.1
 2012 187    35    26.9    26.8    26.6    26.4    26.1    25.8    25.5    25.2
 2012 188    36    27.2    27.1    26.9    26.7    26.4    26.1    25.8    25.4
 2012 189    37    27.2    27.1    27.0    26.7    26.4    26.1    25.8    25.5
 2012 190    38    27.1    27.1    26.9    26.7    26.4    26.1    25.7    25.4
 2012 191    39    27.2    27.1    27.0    26.7    26.4    26.1    25.8    25.4
 2012 192    40    27.2    27.2    27.0    26.7    26.4    26.1    25.8    25.5
 2012 193    41    26.9    26.9    26.7    26.5    26.2    25.9    25.6    25.3
 2012 194    42    26.9    26.8    26.7    26.4    26.1    25.9    25.6    25.2
 2012 195    43    27.0    27.0    26.8    26.6    26.3    26.0    25.7    25.4
 2012 196    44    26.9    26.8    26.7    26.4    26.2    25.9    25.6    25.2
 2012 197    45    26.7    26.6    26.5    26.2    26.0    25.7    25.4    25.1
 2012 198    46    26.5    26.4    26.3    26.1    25.8    25.5    25.3    24.9
 2012 199    47    26.5    26.4    26.3    26.1    25.8    25.5    25.3    24.9
 2012 200    48    26.5    26.4    26.3    26.0    25.8    25.5    25.2    24.9
 2012 201    49    26.6    26.6    26.4    26.2    25.9    25.6    25.4    25.0
 2012 202    50    26.8    26.7    26.6    26.3    26.1    25.8    25.5    25.2
 2012 203    51    26.8    26.7    26.6    26.4    26.1    25.8    25.5    25.2
 2012 204    52    26.7    26.7    26.5    26.3    26.0    25.8    25.5    25.1
 2012 205    53    26.7    26.6    26.5    26.2    26.0    25.7    25.4    25.1
 2012 206    54    26.5    26.5    26.3    26.1    25.8    25.6    25.3    25.0
 2012 207    55    26.5    26.5    26.3    26.1    25.8    25.6    25.3    25.0
 2012 208    56    26.8    26.7    26.6    26.3    26.1    25.8    25.5    25.2
 2012 209    57    27.0    27.0    26.8    26.6    26.3    26.0    25.7    25.4
 2012 210    58    27.0    26.9    26.8    26.5    26.2    26.0    25.7    25.3
 2012 211    59    26.9    26.9    26.7    26.5    26.2    25.9    25.6    25.3
 2012 212    60    26.8    26.7    26.6    26.4    26.1    25.8    25.5    25.2
 2012 213    61    26.8    26.7    26.6    26.3    26.0    25.8    25.5    25.2
 2012 214    62    26.5    26.4    26.3    26.1    25.8    25.6    25.3    25.0
 2012 215    63    26.5    26.4    26.3    26.1    25.8    25.5    25.3    25.0
 2012 216    64    26.5    26.5    26.4    26.1    25.9    25.6    25.3    25.0
 2012 217    65    26.7    26.6    26.5    26.2    26.0    25.7    25.4    25.1
 2012 218    66    26.7    26.6    26.5    26.3    26.0    25.7    25.4    25.1
 2012 219    67    26.7    26.6    26.5    26.3    26.0    25.7    25.4    25.1
 2012 220    68    26.7    26.6    26.5    26.3    26.0    25.7    25.4    25.1
 2012 221    69    26.8    26.7    26.6    26.3    26.1    25.8    25.5    25.2
 2012 222    70    26.6    26.5    26.4    26.1    25.9    25.6    25.3    25.0
 2012 223    71    26.4    26.4    26.2    26.0    25.8    25.5    25.2    24.9
 2012 224    72    26.4    26.4    26.2    26.0    25.7    25.5    25.2    24.9
 2012 225    73    26.4    26.3    26.2    26.0    25.7    25.5    25.2    24.9
 2012 226    74    26.2    26.2    26.1    25.8    25.6    25.4    25.1    24.8
 2012 227    75    26.3    26.2    26.1    25.9    25.6    25.4    25.1    24.8
 2012 228    76    26.3    26.2    26.1    25.9    25.6    25.4    25.1    24.8
 2012 229    77    26.3    26.2    26.1    25.9    25.6    25.4    25.1    24.8
 2012 230    78    26.1    26.0    25.9    25.7    25.4    25.2    24.9    24.7
 2012 231    79    25.8    25.8    25.7    25.5    25.2    25.0    24.8    24.5
 2012 232    80    25.9    25.9    25.7    25.5    25.3    25.1    24.8    24.5
 2012 233    81    25.9    25.9    25.8    25.6    25.3    25.1    24.8    24.6
 2012 234    82    26.1    26.0    25.9    25.7    25.5    25.2    25.0    24.7
 2012 235    83    26.2    26.2    26.0    25.8    25.6    25.3    25.1    24.8
 2012 236    84    26.4    26.4    26.3    26.0    25.8    25.5    25.2    24.9
 2012 237    85    26.4    26.4    26.2    26.0    25.7    25.5    25.2    24.9
 2012 238    86    26.2    26.2    26.0    25.8    25.6    25.3    25.1    24.8
 2012 239    87    25.9    25.9    25.8    25.6    25.3    25.1    24.8    24.6
 2012 240    88    26.0    26.0    25.9    25.6    25.4    25.2    24.9    24.6
 2012 241    89    26.1    26.0    25.9    25.7    25.5    25.2    25.0    24.7
 2012 242    90    26.1    26.1    26.0    25.7    25.5    25.3    25.0    24.7
 2012 243    91    26.3    26.2    26.1    25.9    25.6    25.4    25.1    24.8
 2012 244    92    26.2    26.2    26.1    25.8    25.6    25.4    25.1    24.8
 2012 245    93    26.1    26.1    26.0    25.7    25.5    25.3    25.0    24.7
 2012 246    94    25.9    25.8    25.7    25.5    25.3    25.0    24.8    24.5
 2012 247    95    25.7    25.7    25.6    25.4    25.1    24.9    24.7    24.4
 2012 248    96    25.7    25.7    25.5    25.3    25.1    24.9    24.7    24.4
 2012 249    97    25.8    25.7    25.6    25.4    25.2    25.0    24.7    24.5
 2012 250    98    25.7    25.7    25.6    25.4    25.1    24.9    24.7    24.4
 2012 251    99    26.0    25.9    25.8    25.6    25.3    25.1    24.9    24.6
 2012 252   100    26.1    26.0    25.9    25.7    25.5    25.2    25.0    24.7
 2012 253   101    26.1    26.1    25.9    25.7    25.5    25.2    25.0    24.7
 2012 254   102    26.3    26.3    26.1    25.9    25.7    25.4    25.1    24.9
 2012 255   103    26.6    26.6    26.4    26.2    25.9    25.7    25.4    25.1
 2012 256   104    26.7    26.6    26.5    26.3    26.0    25.7    25.5    25.1
 2012 257   105    26.7    26.6    26.5    26.3    26.0    25.7    25.4    25.1
 2012 258   106    26.6    26.6    26.4    26.2    25.9    25.7    25.4    25.1
 2012 259   107    26.5    26.4    26.3    26.1    25.8    25.6    25.3    25.0
 2012 260   108    26.3    26.3    26.1    25.9    25.7    25.4    25.1    24.9
 2012 261   109    26.4    26.4    26.2    26.0    25.7    25.5    25.2    24.9
 2012 262   110    26.5    26.4    26.3    26.0    25.8    25.5    25.2    24.9
 2012 263   111    26.4    26.4    26.2    26.0    25.7    25.5    25.2    24.9
 2012 264   112    26.4    26.4    26.2    26.0    25.8    25.5    25.2    24.9
 2012 265   113    26.4    26.3    26.2    26.0    25.7    25.5    25.2    24.9
 2012 266   114    26.2    26.1    26.0    25.8    25.6    25.3    25.1    24.8
 2012 267   115    26.0    26.0    25.9    25.7    25.4    25.2    24.9    24.7
 2012 268   116    26.2    26.2    26.0    25.8    25.6    25.4    25.1    24.8
 2012 269   117    26.3    26.2    26.1    25.9    25.6    25.4    25.1    24.8
 2012 270   118    26.5    26.5    26.3    26.1    25.9    25.6    25.3    25.0
 2012 271   119    26.6    26.6    26.4    26.2    25.9    25.7    25.4    25.1
 2012 272   120    26.9    26.8    26.7    26.4    26.2    25.9    25.6    25.3
 2012 273   121    26.6    26.6    26.4    26.2    25.9    25.7    25.4    25.1
 2012 274   122    26.5    26.5    26.3    26.1    25.9    25.6    25.3    25.0
 2012 275   123    26.4    26.3    26.2    26.0    25.7    25.5    25.2    24.9
 2012 276   124    26.5    26.5    26.3    26.1    25.9    25.6    25.3    25.0
 2012 277   125    26.4    26.4    26.2    26.0    25.8    25.5    25.3    25.0
 2012 278   126    26.6    26.5    26.4    26.2    25.9    25.7    25.4    25.1
 2012 279   127    26.6    26.5    26.4    26.2    25.9    25.7    25.4    25.1
 2012 280   128    26.6    26.6    26.5    26.2    26.0    25.7    25.4    25.1
 2012 281   129    26.6    26.5    26.4    26.2    25.9    25.6    25.4    25.1
 2012 282   130    26.4    26.4    26.3    26.0    25.8    25.5    25.2    25.0
 2012 283   131    26.4    26.4    26.3    26.0    25.8    25.5    25.2    24.9
 2012 284   132    26.6    26.6    26.5    26.2    25.9    25.7    25.4    25.1
 2012 285   133    26.5    26.4    26.3    26.0    25.8    25.5    25.3    24.9
 2012 286   134    26.5    26.5    26.3    26.1    25.8    25.6    25.3    25.0
