*Soil Carbon Balance

*DSSAT Cropping System Model Ver. 4.8.2.000 -release  DEC 30, 2025 00:11:04

*RUN   1        : F1 NE 4                   RICER048 CRDA1201    1
 MODEL          : RICER048 - Rice
 EXPERIMENT     : CRDA1201 WH ESSAI VARIETE DAROU PAKA 2012
 DATA PATH      :
 TREATMENT  1   : F1 NE 4                   RICER048
  

!                                                 Initial               Final
!                                                Year/DOY            Year/DOY
!                                                2012-152            2012-152
! SOIL C BALANCE                                 --------- kg[C]/ha ---------
!  SOIL & SURFACE ORGANIC C
!   Soil Organic C                               70536.00            69955.45
!   Surface Organic C                                0.00                4.83
!   Soil Litter C                                   84.00               13.77
!   Surface Litter C                                 0.00               17.33
!   Soil methane C stored                            0.00                0.00
!                                                --------            --------
!   Total C in Soil and Surface Layers           70620.00            69991.39
!  ADDITIONS AND REMOVALS:
!   C in Harvest Residues from Previous              0.00
!   C from Organic Applications                      0.00
!   C in returned senesced material                 29.58
!   CO2-C emitted                                  658.19
!   CH4-C emitted                                    0.00
!   CH4-C leached                                    0.00
!   CH4-C plant uptake                               0.00
!                                                --------            --------
! TOTAL C BALANCE                                70649.58            70649.58
!   Balance                                                            -0.001
