*SOM C DAILY OUTPUT FILE

*DSSAT Cropping System Model Ver. 4.8.2.000 -release  DEC 30, 2025 00:11:04

*RUN   1        : F1 NE 4                   RICER048 CRDA1201    1
 MODEL          : RICER048 - Rice
 EXPERIMENT     : CRDA1201 WH ESSAI VARIETE DAROU PAKA 2012
 DATA PATH      :
 TREATMENT  1   : F1 NE 4                   RICER048
  
!                                                                                                                                                                                                                                                                                                                                                                                                                                                                                    Cumul.
!               <---- SOM C in top layers ----> <- SOM + LIT C in top layers -> <------------ Total Soil Organic Carbon (SOM + LIT) ------------> <--------- Active Soil Organic Carbon (SOM1) ---------> <---- Intermediate Soil Organic C (SOM2) -----> <------- Passive Soil Organic C (SOM3) -------> <------------------ Litter Carbon --------------------> <-------------- Metabolic Litter Carbon --------------> <------------- Structural Litter Carbon -------------->  Resid.  <-Accum. CO2->
!               20cm-kg  20cm-% 40cm-kg  40cm-% 20cm-kg  20cm-% 40cm-kg  40cm-%     Total Surface    Soil     0-5    5-15   15-30   30-45  45-100 Surface    Soil     0-5    5-15   15-30   30-45  45-100    Soil     0-5    5-15   15-30   30-45  45-100    Soil     0-5    5-15   15-30   30-45  45-100 Surface    Soil     0-5    5-15   15-30   30-45  45-100 Surface    Soil     0-5    5-15   15-30   30-45  45-100 Surface    Soil     0-5    5-15   15-30   30-45  45-100 (kg/ha) Surface    Soil
@YEAR DOY   DAS  SCS20D  SC%20D  SCS40D  SC%40D  SLC20D  SL%20D  SLC40D  SL%40D      SOCD    SC0D    SCTD    SC1D    SC2D    SC3D    SC4D   SC5+D   S1C0D   S1CTD   S1C1D   S1C2D   S1C3D   S1C4D  S1C5+D   S2CTD   S2C1D   S2C2D   S2C3D   S2C4D  S2C5+D   S3CTD   S3C1D   S3C2D   S3C3D   S3C4D  S3C5+D    LC0D    LCTD    LC1D    LC2D    LC3D    LC4D   LC5+D   MEC0D   MECTD   MEC1D   MEC2D   MEC3D   MEC4D  MEC5+D   STC0D   STCTD   STC1D   STC2D   STC3D   STC4D  STC5+D    RESC   CO20C   CO2SC
 2012 152     0   26501   0.848   12538   0.399   26540   0.849   12560   0.400     70620       0   70620    7800   15600    9420    9420   28380       0     352     102     203       9       9      28    6690    1930    3864     179     179     539   63494    5756   11513    9212    9219   27794       0      84      12      20      20      13      19       0      69      10      16      17      11      15       0      15       2       4       4       2       3       0       0       0
 2012 153     1   26496   0.848   12538   0.399   26532   0.849   12559   0.400     70609       0   70609    7797   15595    9419    9419   28379       0     350     101     201      10      10      29    6688    1929    3863     179     179     539   63493    5756   11513    9211    9219   27794       0      79      12      18      19      12      17       0      64       9      15      15      10      14       0      15       2       4       4       2       3       0       0      11
 2012 154     2   26491   0.848   12538   0.399   26525   0.849   12558   0.400     70600       0   70600    7795   15591    9418    9419   28377       0     349     100     199      10      10      29    6685    1928    3861     178     179     539   63492    5756   11512    9211    9219   27793       0      74      11      17      18      12      16       0      59       9      14      14       9      13       0      15       2       4       4       2       3       0       0      20
 2012 155     3   26486   0.848   12538   0.399   26519   0.849   12557   0.400     70591       0   70591    7793   15586    9417    9418   28376       0     347      99     197      11      10      29    6683    1928    3860     178     179     538   63491    5756   11512    9211    9218   27793       0      70      10      16      17      11      16       0      55       8      13      13       9      12       0      15       2       4       4       2       3       0       0      29
 2012 156     4   26482   0.847   12539   0.399   26512   0.848   12556   0.400     70582       0   70582    7792   15582    9417    9417   28375       0     345      98     196      11      11      30    6681    1927    3859     178     179     538   63490    5756   11512    9211    9218   27792       0      66      10      15      16      10      15       0      51       8      12      12       8      11       0      15       2       4       4       2       3       0       0      38
 2012 157     5   26476   0.847   12539   0.399   26505   0.848   12555   0.400     70573       0   70573    7789   15578    9416    9417   28374       0     343      97     194      12      11      30    6679    1927    3857     178     178     538   63489    5756   11512    9211    9218   27792       0      62       9      15      15      10      14       0      47       7      11      11       7      11       0      15       2       4       4       2       3       0       0      47
 2012 158     6   26471   0.847   12539   0.399   26499   0.848   12554   0.400     70565       0   70565    7787   15573    9415    9416   28373       0     341      96     192      12      11      30    6676    1926    3856     178     178     538   63488    5756   11512    9211    9218   27792       0      59       9      14      14       9      13       0      44       7      10      11       7      10       0      15       2       4       4       2       3       0       0      55
 2012 159     7   26467   0.847   12539   0.399   26493   0.848   12553   0.400     70556       0   70556    7785   15569    9414    9416   28372       0     339      96     190      12      11      30    6674    1925    3855     178     178     538   63487    5756   11512    9210    9218   27791       0      56       8      13      13       9      12       0      41       6       9      10       6       9       0      15       2       4       4       2       3       0       0      64
 2012 160     8   26462   0.847   12539   0.399   26487   0.848   12553   0.400     70548       0   70548    7784   15565    9414    9415   28371       0     337      95     188      12      11      30    6672    1925    3853     178     178     538   63486    5756   11512    9210    9218   27791       0      53       8      12      13       8      12       0      38       6       9       9       6       9       0      15       2       4       4       2       3       0       0      72
 2012 161     9   26458   0.847   12539   0.399   26481   0.847   12552   0.400     70541       0   70541    7782   15561    9413    9415   28370       0     335      94     186      13      11      31    6670    1924    3852     178     178     537   63485    5756   11511    9210    9217   27790       0      51       8      12      12       8      11       0      36       6       8       8       5       8       0      15       2       4       4       2       3       0       0      79
 2012 162    10   26453   0.847   12539   0.399   26476   0.847   12551   0.400     70534       0   70534    7781   15557    9412    9414   28369       0     333      94     184      13      11      31    6668    1924    3850     178     178     537   63484    5756   11511    9210    9217   27790       0      48       8      11      12       7      11       0      33       5       8       8       5       7       0      15       2       4       4       2       3       0       0      86
 2012 163    11   26449   0.846   12539   0.399   26470   0.847   12551   0.400     70526       0   70526    7780   15553    9412    9414   28368       0     331      93     183      13      12      31    6666    1923    3849     178     178     537   63483    5756   11511    9210    9217   27789       0      46       7      11      11       7      10       0      31       5       7       7       5       7       0      15       2       4       4       2       3       0       0      94
 2012 164    12   26444   0.846   12538   0.399   26465   0.847   12550   0.400     70519       0   70519    7778   15550    9411    9413   28367       0     329      92     181      13      12      31    6664    1923    3848     178     178     537   63482    5756   11511    9210    9217   27789       0      44       7      10      10       7      10       0      29       5       7       7       4       6       0      15       2       4       4       2       3       0       0     101
 2012 165    13   26439   0.846   12538   0.399   26458   0.847   12549   0.400     70511       0   70511    7775   15546    9411    9413   28366       0     327      91     179      13      12      31    6661    1922    3846     178     178     537   63481    5756   11511    9210    9217   27788       0      42       7      10      10       6       9       0      27       4       6       6       4       6       0      15       2       4       4       2       3       0       0     109
 2012 166    14   26434   0.846   12538   0.399   26452   0.846   12549   0.400     70503       0   70503    7773   15542    9410    9413   28365       0     324      91     177      13      12      31    6659    1921    3845     178     178     537   63480    5755   11511    9209    9217   27788       0      40       6       9      10       6       9       0      25       4       6       6       4       6       0      15       2       3       4       2       3       0       0     117
 2012 167    15   26429   0.846   12538   0.399   26446   0.846   12548   0.400     70496       0   70496    7771   15538    9410    9412   28364       0     322      90     176      13      12      31    6656    1920    3843     178     178     537   63480    5755   11511    9209    9217   27788       0      38       6       9       9       6       9       0      23       4       5       6       4       5       0      15       2       3       4       2       3       0       0     124
 2012 168    16   26424   0.846   12538   0.399   26441   0.846   12548   0.400     70489       0   70489    7769   15535    9409    9412   28363       0     319      89     174      13      12      31    6654    1920    3842     178     178     536   63479    5755   11510    9209    9216   27787       0      37       6       8       9       6       8       0      22       3       5       5       3       5       0      15       2       3       4       2       3       0       0     131
 2012 169    17   26419   0.845   12538   0.399   26435   0.846   12547   0.400     70482       0   70482    7768   15531    9409    9412   28362       0     317      88     172      13      12      31    6652    1919    3840     178     178     536   63478    5755   11510    9209    9216   27787       0      35       5       8       9       5       8       0      21       3       5       5       3       5       0      15       2       3       4       2       3       0       0     138
 2012 170    18   26414   0.845   12538   0.399   26430   0.846   12547   0.400     70475       0   70475    7766   15528    9409    9411   28362       0     315      87     171      14      12      31    6649    1918    3839     178     178     536   63477    5755   11510    9209    9216   27787       0      34       5       8       8       5       8       0      19       3       4       5       3       4       0      15       2       3       4       2       3       0       0     145
 2012 171    19   26409   0.845   12537   0.399   26425   0.846   12546   0.400     70469       0   70469    7764   15524    9408    9411   28361       0     312      86     169      14      12      31    6647    1918    3837     178     178     536   63476    5755   11510    9209    9216   27786       0      33       5       7       8       5       7       0      18       3       4       4       3       4       0      15       2       3       4       2       3       0       0     151
 2012 172    20   26405   0.845   12537   0.399   26419   0.845   12546   0.400     70462       0   70462    7763   15521    9408    9411   28360       0     310      86     168      14      12      31    6645    1917    3836     178     178     536   63476    5755   11510    9209    9216   27786       0      32       5       7       8       5       7       0      17       3       4       4       3       4       0      15       2       3       4       2       3       0       0     158
 2012 173    21   26400   0.845   12537   0.399   26414   0.845   12545   0.400     70456       0   70456    7761   15518    9407    9410   28360       0     308      85     166      14      12      31    6643    1916    3835     178     178     536   63475    5755   11510    9208    9216   27786       0      31       5       7       7       5       7       0      16       2       3       4       3       4       0      15       2       3       4       2       3       0       0     164
 2012 174    22   26396   0.845   12537   0.399   26410   0.845   12545   0.400     70451       0   70451    7760   15514    9407    9410   28359       0     306      84     165      14      12      31    6641    1916    3833     178     178     536   63474    5755   11510    9208    9216   27785       0      30       5       7       7       5       7       0      15       2       3       4       2       4       0      15       2       3       4       2       3       0       0     169
 2012 175    23   26392   0.845   12537   0.399   26405   0.845   12544   0.400     70445       0   70445    7758   15511    9407    9410   28359       0     304      84     164      14      12      31    6638    1915    3832     178     178     536   63473    5755   11509    9208    9216   27785       0      29       4       7       7       5       7       0      14       2       3       3       2       4       0      15       2       3       4       2       3       0       0     175
 2012 176    24   26387   0.844   12537   0.399   26400   0.845   12544   0.399     70439       0   70439    7756   15508    9406    9410   28358       0     302      83     162      14      12      31    6636    1914    3830     178     178     536   63473    5755   11509    9208    9216   27785       0      28       4       6       7       4       7       0      14       2       3       3       2       3       0      15       2       3       4       2       3       0       0     181
 2012 177    25   26383   0.844   12536   0.399   26396   0.845   12544   0.399     70434       0   70434    7755   15505    9406    9409   28358       0     300      82     161      14      12      31    6634    1914    3829     178     178     536   63472    5755   11509    9208    9215   27785       0      28       4       6       7       4       7       0      13       2       3       3       2       3       0      15       2       3       4       2       3       0       0     186
 2012 178    26   26379   0.844   12536   0.399   26392   0.845   12543   0.399     70429       0   70429    7754   15503    9406    9409   28357       0     298      82     160      14      12      31    6632    1913    3828     178     178     536   63471    5755   11509    9208    9215   27784       0      27       4       6       6       4       6       0      12       2       3       3       2       3       0      15       2       3       4       2       3       0       0     191
 2012 179    27   26375   0.844   12536   0.399   26387   0.844   12543   0.399     70423       0   70423    7752   15500    9405    9409   28357       0     296      81     158      14      12      31    6630    1912    3826     178     178     535   63471    5755   11509    9208    9215   27784       0      26       4       6       6       4       6       0      11       2       2       3       2       3       0      15       2       3       4       2       3       0       0     197
 2012 180    28   26371   0.844   12536   0.399   26383   0.844   12542   0.399     70418       0   70418    7751   15497    9405    9409   28356       0     294      81     157      14      12      31    6628    1912    3825     178     178     535   63470    5755   11509    9208    9215   27784       0      26       4       6       6       4       6       0      11       2       2       2       2       3       0      15       2       3       4       2       3       0       0     202
 2012 181    29   26367   0.844   12536   0.399   26379   0.844   12542   0.399     70412       0   70412    7749   15494    9405    9408   28356       0     292      80     156      14      12      31    6626    1911    3824     178     178     535   63469    5755   11509    9207    9215   27784       0      25       4       6       6       4       6       0      10       2       2       2       2       3       0      15       2       3       4       2       3       0       0     208
 2012 182    30   26364   0.844   12535   0.399   26375   0.844   12542   0.399     70407       0   70407    7748   15492    9404    9408   28355       0     291      79     155      14      12      31    6624    1911    3823     178     178     535   63468    5754   11509    9207    9215   27783       0      24       4       5       6       4       6       0      10       1       2       2       2       3       0      15       2       3       4       2       3       0       0     213
 2012 183    31   26360   0.844   12535   0.399   26370   0.844   12541   0.399     70402       0   70402    7747   15489    9404    9408   28355       0     289      79     154      14      12      31    6622    1910    3821     178     178     535   63468    5754   11508    9207    9215   27783       0      24       4       5       6       4       6       0       9       1       2       2       1       2       0      15       2       3       4       2       3       0       0     218
 2012 184    32   25993   0.857   12535   0.399   26003   0.857   12541   0.399     70396       0   70396    7744   15487    9404    9408   28354       0     287      77     153      13      12      31    6619    1909    3820     178     178     535   63467    5754   11508    9207    9215   27783       0      23       3       6       6       4       6       0       9       1       2       2       1       2       0      15       2       4       4       2       3       0       0     224
 2012 185    33   26076   0.853   12534   0.399   26086   0.854   12540   0.399     70391       0   70391    7742   15484    9404    9407   28353       0     285      76     152      13      12      31    6617    1908    3818     178     178     535   63466    5754   11508    9207    9214   27782       0      23       3       5       5       4       5       0       8       1       2       2       1       2       0      15       2       4       4       2       3       0       0     229
 2012 186    34   26112   0.852   12534   0.399   26122   0.852   12540   0.399     70385       0   70385    7740   15482    9403    9407   28353       0     283      76     151      13      12      31    6614    1907    3817     178     178     535   63465    5754   11508    9207    9214   27782       0      23       3       5       5       3       5       0       8       1       2       2       1       2       0      15       2       4       4       2       3       0       0     235
 2012 187    35   26152   0.850   12534   0.399   26162   0.850   12540   0.399     70380       0   70380    7738   15479    9403    9407   28352       0     281      75     150      13      12      31    6612    1906    3816     178     178     535   63465    5754   11508    9207    9214   27782       0      22       3       5       5       3       5       0       7       1       2       2       1       2       0      15       2       4       4       2       3       0       0     240
 2012 188    36   26171   0.849   12534   0.399   26180   0.849   12540   0.399     70374       0   70374    7736   15477    9403    9407   28352       0     279      74     149      13      12      31    6610    1905    3815     178     177     535   63464    5754   11508    9207    9214   27781       0      22       3       5       5       3       5       0       7       1       2       2       1       2       0      15       2       4       4       2       3       0       0     246
 2012 189    37   26191   0.848   12534   0.399   26201   0.848   12539   0.399     70368       0   70368    7734   15474    9403    9406   28351       0     277      73     148      13      12      31    6607    1904    3813     178     177     534   63463    5754   11508    9207    9214   27781       0      21       3       5       5       3       5       0       7       1       1       1       1       2       0      15       2       4       4       2       3       0       0     252
 2012 190    38   26222   0.846   12533   0.399   26231   0.847   12539   0.399     70362       0   70362    7732   15471    9402    9406   28351       0     275      72     147      13      12      31    6604    1903    3812     178     177     534   63462    5754   11508    9206    9214   27781       0      21       3       5       5       3       5       0       6       1       1       1       1       2       0      15       2       4       4       2       3       0       0     258
 2012 191    39   26273   0.844   12533   0.399   26282   0.844   12539   0.399     70357       0   70357    7730   15469    9402    9406   28350       0     273      72     146      13      12      30    6602    1902    3810     178     177     534   63462    5754   11508    9206    9214   27780       0      21       3       5       5       3       5       0       6       1       1       1       1       2       0      15       2       4       4       2       3       0       0     263
 2012 192    40   26276   0.844   12533   0.399   26285   0.844   12538   0.399     70351       0   70351    7728   15466    9402    9406   28349       0     271      71     145      13      12      30    6599    1901    3809     178     177     534   63461    5754   11507    9206    9214   27780       0      20       3       5       5       3       5       0       6       1       1       1       1       2       0      15       2       4       4       2       3       0       0     269
 2012 193    41   26315   0.842   12533   0.399   26324   0.842   12538   0.399     70346       0   70346    7726   15464    9402    9405   28349       0     269      70     144      13      12      30    6597    1900    3808     178     177     534   63460    5753   11507    9206    9213   27780       0      20       3       5       5       3       5       0       5       1       1       1       1       1       0      15       2       4       4       2       3       0       0     274
 2012 194    42   26311   0.842   12533   0.399   26319   0.842   12538   0.399     70340       0   70340    7724   15461    9401    9405   28348       0     267      69     143      13      11      30    6594    1899    3806     178     177     534   63459    5753   11507    9206    9213   27779       0      20       3       5       5       3       5       0       5       1       1       1       1       1       0      15       2       4       4       2       3       0       0     280
 2012 195    43   26307   0.842   12532   0.399   26315   0.842   12537   0.399     70335       0   70335    7723   15459    9401    9405   28348       0     266      69     142      13      11      30    6592    1898    3805     178     177     534   63458    5753   11507    9206    9213   27779       0      19       3       5       5       3       5       0       5       1       1       1       1       1       0      15       2       4       4       2       3       0       0     285
 2012 196    44   26302   0.842   12532   0.399   26311   0.842   12537   0.399     70330       0   70330    7721   15457    9401    9405   28347       0     264      68     141      13      11      30    6589    1897    3804     178     177     534   63458    5753   11507    9206    9213   27779       0      19       3       5       5       3       4       0       4       1       1       1       1       1       0      15       2       4       4       2       3       0       0     290
 2012 197    45   26299   0.842   12532   0.399   26307   0.842   12537   0.399     70325       0   70325    7719   15454    9401    9405   28346       0     262      67     140      13      11      30    6587    1896    3803     178     177     534   63457    5753   11507    9206    9213   27778       0      19       3       5       4       3       4       0       4       1       1       1       1       1       0      15       2       4       4       2       3       0       0     295
 2012 198    46   26294   0.841   12532   0.399   26303   0.842   12536   0.399     70320       0   70320    7717   15452    9400    9404   28346       0     261      67     139      13      11      30    6585    1895    3801     178     177     533   63456    5753   11507    9205    9213   27778       0      19       3       4       4       3       4       0       4       1       1       1       1       1       0      15       2       4       4       2       3       0       0     300
 2012 199    47   26290   0.841   12531   0.399   26299   0.842   12536   0.399     70315       0   70315    7716   15450    9400    9404   28345       0     259      66     139      13      11      30    6582    1894    3800     177     177     533   63455    5753   11507    9205    9213   27778       0      18       2       4       4       3       4       0       4       1       1       1       1       1       0      15       2       4       4       2       3       0       0     305
 2012 200    48   26286   0.841   12531   0.399   26294   0.841   12536   0.399     70310       0   70310    7714   15447    9400    9404   28345       0     257      66     138      13      11      30    6580    1893    3799     177     177     533   63455    5753   11507    9205    9213   27777       0      18       2       4       4       3       4       0       4       0       1       1       1       1       0      15       2       4       4       2       3       0       0     310
 2012 201    49   26282   0.841   12531   0.399   26290   0.841   12536   0.399     70304       0   70304    7712   15445    9400    9404   28344       0     256      65     137      13      11      30    6577    1892    3797     177     177     533   63454    5753   11506    9205    9213   27777       0      18       2       4       4       3       4       0       3       0       1       1       1       1       0      15       2       4       4       2       3       0       0     316
 2012 202    50   26277   0.841   12531   0.399   26285   0.841   12535   0.399     70299       0   70299    7710   15442    9399    9404   28344       0     254      64     136      13      11      30    6574    1891    3796     177     177     533   63453    5753   11506    9205    9212   27777       0      18       2       4       4       3       4       0       3       0       1       1       0       1       0      15       2       4       4       2       3       0       0     321
 2012 203    51   26273   0.841   12530   0.399   26281   0.841   12535   0.399     70293       0   70293    7708   15440    9399    9403   28343       0     252      64     135      13      11      30    6571    1890    3795     177     177     533   63452    5753   11506    9205    9212   27776       0      18       2       4       4       3       4       0       3       0       1       1       0       1       0      15       2       4       4       2       3       0       0     327
 2012 204    52   26269   0.841   12530   0.399   26277   0.841   12535   0.399     70288       0   70288    7707   15437    9399    9403   28342       0     251      63     134      13      11      30    6569    1889    3793     177     177     533   63451    5752   11506    9205    9212   27776       0      17       2       4       4       3       4       0       3       0       1       1       0       1       0      15       2       4       4       2       3       0       0     332
 2012 205    53   26265   0.840   12530   0.399   26273   0.841   12534   0.399     70283       0   70283    7705   15435    9399    9403   28342       0     249      63     133      13      11      30    6566    1888    3792     177     177     533   63451    5752   11506    9205    9212   27776       0      17       2       4       4       3       4       0       3       0       1       1       0       1       0      14       2       4       4       2       3       0       0     337
 2012 206    54   26261   0.840   12530   0.399   26269   0.841   12534   0.399     70279       0   70279    7703   15433    9399    9403   28341       0     248      62     133      12      11      30    6564    1887    3791     177     177     533   63450    5752   11506    9205    9212   27775       0      17       2       4       4       3       4       0       3       0       1       1       0       1       0      14       2       4       4       2       3       0       0     341
 2012 207    55   26257   0.840   12529   0.399   26265   0.840   12534   0.399     70274       0   70274    7701   15431    9398    9402   28341       0     246      62     132      12      11      29    6561    1885    3789     177     177     532   63449    5752   11506    9204    9212   27775       0      17       2       4       4       3       4       0       2       0       1       1       0       1       0      14       2       4       4       2       3       0       0     346
 2012 208    56   26253   0.840   12529   0.399   26261   0.840   12534   0.399     70269       0   70269    7700   15429    9398    9402   28340       0     245      61     131      12      11      29    6559    1884    3788     177     177     532   63448    5752   11506    9204    9212   27775       0      17       2       4       4       3       4       0       2       0       1       1       0       1       0      14       2       4       4       2       3       0       0     351
 2012 209    57   26250   0.840   12529   0.399   26257   0.840   12533   0.399     70264       0   70264    7698   15426    9398    9402   28340       0     243      61     130      12      11      29    6556    1883    3787     177     177     532   63448    5752   11505    9204    9212   27774       0      17       2       4       4       3       4       0       2       0       0       0       0       1       0      14       2       4       4       2       3       0       0     356
 2012 210    58   26246   0.840   12529   0.399   26253   0.840   12533   0.399     70260       0   70260    7697   15424    9398    9402   28339       0     242      60     130      12      11      29    6554    1882    3785     177     177     532   63447    5752   11505    9204    9212   27774       0      17       2       4       4       3       4       0       2       0       0       0       0       1       0      14       2       4       4       2       3       0       0     360
 2012 211    59   26242   0.840   12528   0.399   26250   0.840   12533   0.399     70255       0   70255    7695   15422    9397    9402   28339       0     241      60     129      12      11      29    6551    1881    3784     177     177     532   63446    5752   11505    9204    9211   27774       0      16       2       4       4       3       4       0       2       0       0       0       0       1       0      14       2       4       4       2       3       0       0     365
 2012 212    60   26238   0.840   12528   0.399   26246   0.840   12533   0.399     70250       0   70250    7693   15420    9397    9402   28338       0     239      59     128      12      11      29    6549    1880    3783     177     177     532   63445    5752   11505    9204    9211   27773       0      16       2       4       4       3       4       0       2       0       0       0       0       1       0      14       2       4       4       2       3       0       0     370
 2012 213    61   26234   0.839   12528   0.399   26242   0.840   12532   0.399     70245       0   70245    7692   15418    9397    9401   28337       0     238      59     127      12      11      29    6546    1879    3781     177     177     532   63445    5752   11505    9204    9211   27773       0      16       2       4       4       3       4       0       2       0       0       0       0       0       0      14       2       4       4       2       3       0       0     375
 2012 214    62   26230   0.839   12528   0.399   26238   0.840   12532   0.399     70240       0   70240    7690   15415    9397    9401   28337       0     237      58     127      12      11      29    6543    1878    3780     177     177     532   63444    5752   11505    9204    9211   27773       0      16       2       4       4       2       4       0       2       0       0       0       0       0       0      14       2       4       4       2       3       0       0     380
 2012 215    63   26227   0.839   12527   0.399   26234   0.839   12532   0.399     70236       0   70236    7689   15413    9397    9401   28336       0     236      58     126      12      11      29    6541    1877    3779     177     177     531   63443    5751   11505    9204    9211   27772       0      16       2       4       4       2       4       0       2       0       0       0       0       0       0      14       2       4       4       2       3       0       0     384
 2012 216    64   26224   0.839   12527   0.399   26231   0.839   12531   0.399     70232       0   70232    7688   15411    9396    9401   28336       0     234      58     125      12      11      29    6539    1877    3777     177     177     531   63442    5751   11505    9203    9211   27772       0      16       2       4       4       2       4       0       2       0       0       0       0       0       0      14       2       4       3       2       3       0       0     388
 2012 217    65   26220   0.839   12527   0.399   26228   0.839   12531   0.399     70228       0   70228    7687   15409    9396    9401   28335       0     233      57     124      12      11      29    6537    1876    3776     177     177     531   63442    5751   11505    9203    9211   27772       0      16       2       4       4       2       4       0       1       0       0       0       0       0       0      14       2       4       3       2       3       0       0     392
 2012 218    66   26217   0.839   12527   0.399   26225   0.839   12531   0.399     70224       0   70224    7686   15407    9396    9400   28335       0     232      57     124      12      11      29    6535    1875    3775     177     177     531   63441    5751   11504    9203    9211   27771       0      16       2       4       4       2       4       0       1       0       0       0       0       0       0      14       2       4       3       2       3       0       0     396
 2012 219    67   26214   0.839   12527   0.399   26221   0.839   12531   0.399     70220       0   70220    7685   15405    9396    9400   28334       0     231      57     123      12      11      29    6533    1875    3773     177     177     531   63440    5751   11504    9203    9211   27771       0      16       2       4       4       2       4       0       1       0       0       0       0       0       0      14       2       4       3       2       3       0       0     400
 2012 220    68   26211   0.839   12526   0.399   26218   0.839   12530   0.399     70216       0   70216    7684   15402    9396    9400   28334       0     230      57     122      12      11      29    6530    1874    3772     177     177     531   63440    5751   11504    9203    9210   27771       0      16       2       4       4       2       4       0       1       0       0       0       0       0       0      14       2       4       3       2       3       0       0     404
 2012 221    69   26208   0.839   12526   0.399   26215   0.839   12530   0.399     70211       0   70211    7683   15400    9395    9400   28333       0     229      56     122      12      11      29    6528    1873    3770     177     176     531   63439    5751   11504    9203    9210   27770       0      16       2       4       4       2       4       0       1       0       0       0       0       0       0      14       2       4       3       2       3       0       0     409
 2012 222    70   26204   0.839   12526   0.399   26211   0.839   12530   0.399     70207       0   70207    7682   15398    9395    9400   28333       0     228      56     121      12      11      28    6526    1873    3769     177     176     531   63438    5751   11504    9203    9210   27770       0      15       2       4       4       2       3       0       1       0       0       0       0       0       0      14       2       4       3       2       3       0       0     413
 2012 223    71   26201   0.838   12526   0.399   26208   0.839   12530   0.399     70203       0   70203    7681   15396    9395    9399   28332       0     227      56     120      12      10      28    6523    1872    3768     177     176     531   63437    5751   11504    9203    9210   27770       0      15       2       4       4       2       3       0       1       0       0       0       0       0       0      14       2       4       3       2       3       0       0     417
 2012 224    72   26198   0.838   12525   0.399   26205   0.839   12529   0.399     70199       0   70199    7680   15393    9395    9399   28332       0     226      56     120      12      10      28    6521    1871    3766     177     176     530   63437    5751   11504    9203    9210   27769       0      15       2       4       4       2       3       0       1       0       0       0       0       0       0      14       2       4       3       2       3       0       0     421
 2012 225    73   26195   0.838   12525   0.399   26202   0.838   12529   0.399     70195       0   70195    7679   15391    9395    9399   28331       0     225      55     119      12      10      28    6519    1871    3765     177     176     530   63436    5751   11504    9202    9210   27769       0      15       2       4       4       2       3       0       1       0       0       0       0       0       0      14       2       3       3       2       3       0       0     425
 2012 226    74   26192   0.838   12525   0.399   26199   0.838   12529   0.399     70191       0   70191    7678   15389    9394    9399   28331       0     224      55     119      12      10      28    6517    1870    3764     177     176     530   63435    5751   11504    9202    9210   27769       0      15       2       4       4       2       3       0       1       0       0       0       0       0       0      14       2       3       3       2       3       0       0     429
 2012 227    75   26189   0.838   12525   0.399   26196   0.838   12529   0.399     70188       0   70188    7677   15387    9394    9399   28330       0     223      55     118      11      10      28    6515    1869    3762     177     176     530   63435    5751   11503    9202    9210   27768       0      15       2       4       4       2       3       0       1       0       0       0       0       0       0      14       2       3       3       2       3       0       0     433
 2012 228    76   26186   0.838   12524   0.399   26193   0.838   12528   0.399     70184       0   70184    7676   15386    9394    9399   28330       0     222      55     118      11      10      28    6513    1869    3761     177     176     530   63434    5751   11503    9202    9210   27768       0      15       2       4       4       2       3       0       1       0       0       0       0       0       0      14       2       3       3       2       3       0       0     436
 2012 229    77   26183   0.838   12524   0.399   26190   0.838   12528   0.399     70180       0   70180    7675   15384    9394    9398   28329       0     221      54     117      11      10      28    6511    1868    3760     177     176     530   63433    5751   11503    9202    9210   27768       0      15       2       4       4       2       3       0       1       0       0       0       0       0       0      14       2       3       3       2       3       0       0     440
 2012 230    78   26180   0.838   12524   0.399   26187   0.838   12528   0.399     70176       0   70176    7674   15382    9394    9398   28329       0     220      54     116      11      10      28    6508    1867    3758     177     176     530   63433    5751   11503    9202    9209   27768       0      15       2       4       4       2       3       0       1       0       0       0       0       0       0      14       2       3       3       2       3       0       0     444
 2012 231    79   26177   0.838   12524   0.399   26184   0.838   12528   0.399     70173       0   70172    7673   15380    9394    9398   28328       0     219      54     116      11      10      28    6506    1867    3757     177     176     530   63432    5751   11503    9202    9209   27767       0      15       2       4       4       2       3       0       1       0       0       0       0       0       0      14       2       3       3       2       3       0       0     448
 2012 232    80   26174   0.838   12524   0.399   26181   0.838   12527   0.399     70169       0   70169    7672   15378    9393    9398   28328       0     219      54     115      11      10      28    6504    1866    3756     177     176     530   63431    5751   11503    9202    9209   27767       0      15       2       4       4       2       3       0       1       0       0       0       0       0       0      14       2       3       3       2       3       0       0     451
 2012 233    81   26171   0.837   12523   0.399   26178   0.838   12527   0.399     70165       0   70165    7671   15376    9393    9398   28327       0     218      54     115      11      10      28    6502    1865    3754     177     176     529   63431    5750   11503    9202    9209   27767       0      15       2       4       4       2       3       0       1       0       0       0       0       0       0      14       2       3       3       2       3       0       0     455
 2012 234    82   26168   0.837   12523   0.399   26175   0.838   12527   0.399     70162       0   70161    7670   15374    9393    9398   28327       0     217      53     114      11      10      28    6500    1865    3753     177     176     529   63430    5750   11503    9202    9209   27766       0      15       2       4       4       2       3       0       1       0       0       0       0       0       0      14       2       3       3       2       3       0       0     459
 2012 235    83   26165   0.837   12523   0.399   26172   0.838   12527   0.399     70158       0   70158    7670   15372    9393    9397   28326       0     216      53     114      11      10      28    6498    1864    3752     177     176     529   63429    5750   11503    9201    9209   27766       0      15       2       4       4       2       3       0       1       0       0       0       0       0       0      14       2       3       3       2       3       0       0     462
 2012 236    84   26163   0.837   12523   0.399   26170   0.837   12527   0.399     70154       0   70154    7669   15370    9393    9397   28326       0     215      53     113      11      10      28    6496    1863    3751     177     176     529   63429    5750   11502    9201    9209   27766       0      15       2       4       4       2       3       0       1       0       0       0       0       0       0      14       2       3       3       2       3       0       0     466
 2012 237    85   26160   0.837   12522   0.399   26167   0.837   12526   0.399     70151       0   70150    7668   15368    9392    9397   28325       0     214      53     113      11      10      28    6493    1863    3749     177     176     529   63428    5750   11502    9201    9209   27765       0      15       2       4       4       2       3       0       1       0       0       0       0       0       0      14       2       3       3       2       3       0       0     470
 2012 238    86   26157   0.837   12522   0.399   26164   0.837   12526   0.399     70147       1   70147    7667   15366    9392    9397   28325       0     214      53     112      11      10      28    6491    1862    3748     177     176     529   63427    5750   11502    9201    9209   27765       1      15       2       4       4       2       3       0       1       0       0       0       0       0       0      14       2       3       3       2       3       0       0     473
 2012 239    87   26154   0.837   12522   0.399   26161   0.837   12526   0.399     70144       1   70143    7666   15364    9392    9397   28324       0     213      52     112      11      10      28    6489    1861    3747     177     176     529   63427    5750   11502    9201    9208   27765       1      15       2       4       4       2       3       1       0       0       0       0       0       0       0      14       2       3       3       2       3       0       0     477
 2012 240    88   26151   0.837   12522   0.399   26158   0.837   12526   0.399     70140       1   70140    7665   15362    9392    9397   28324       0     212      52     111      11      10      27    6487    1861    3745     177     176     529   63426    5750   11502    9201    9208   27764       1      15       2       4       4       2       3       1       0       0       0       0       0       0       0      14       2       3       3       2       3       0       0     480
 2012 241    89   26148   0.837   12522   0.399   26155   0.837   12525   0.399     70137       1   70136    7664   15360    9392    9396   28323       0     211      52     111      11      10      27    6485    1860    3744     176     176     528   63425    5750   11502    9201    9208   27764       1      15       2       4       4       2       3       1       0       0       0       0       0       0       0      14       2       3       3       2       3       0       0     484
 2012 242    90   26145   0.837   12521   0.399   26152   0.837   12525   0.399     70133       1   70132    7663   15358    9392    9396   28323       0     210      52     110      11      10      27    6483    1859    3743     176     176     528   63425    5750   11502    9201    9208   27764       1      15       2       4       4       2       3       1       0       0       0       0       0       0       0      14       2       3       3       2       3       0       0     488
 2012 243    91   26142   0.837   12521   0.399   26149   0.837   12525   0.399     70129       1   70128    7662   15356    9391    9396   28322       0     210      52     110      11      10      27    6480    1859    3741     176     176     528   63424    5750   11502    9201    9208   27764       1      15       2       4       4       2       3       1       0       0       0       0       0       0       0      14       2       3       3       2       3       0       0     492
 2012 244    92   26139   0.836   12521   0.399   26146   0.837   12525   0.399     70126       1   70124    7661   15354    9391    9396   28322       0     209      51     109      11      10      27    6478    1858    3740     176     176     528   63423    5750   11502    9200    9208   27763       1      14       2       4       4       2       3       1       0       0       0       0       0       0       0      14       2       3       3       2       3       0       0     496
 2012 245    93   26136   0.836   12521   0.399   26143   0.837   12524   0.399     70122       2   70120    7660   15352    9391    9396   28321       0     208      51     109      11      10      27    6475    1857    3738     176     176     528   63422    5750   11501    9200    9208   27763       2      14       2       4       4       2       3       1       0       0       0       0       0       0       0      14       2       3       3       2       3       0       0     500
 2012 246    94   26133   0.836   12520   0.399   26140   0.836   12524   0.399     70118       2   70116    7659   15350    9391    9395   28321       0     207      51     108      11      10      27    6473    1857    3737     176     176     528   63422    5750   11501    9200    9208   27763       2      14       2       4       4       2       3       1       0       0       0       0       0       0       0      14       2       3       3       2       3       0       0     504
 2012 247    95   26130   0.836   12520   0.399   26137   0.836   12524   0.399     70115       2   70113    7658   15348    9391    9395   28320       0     206      51     108      11      10      27    6471    1856    3735     176     176     528   63421    5750   11501    9200    9208   27762       2      14       2       4       3       2       3       2       0       0       0       0       0       0       0      14       2       3       3       2       3       0       0     507
 2012 248    96   26127   0.836   12520   0.399   26134   0.836   12524   0.399     70112       2   70109    7658   15346    9390    9395   28320       0     206      51     107      11      10      27    6469    1855    3734     176     176     528   63420    5750   11501    9200    9208   27762       2      14       2       4       3       2       3       2       0       0       0       0       0       0       0      14       2       3       3       2       3       0       0     511
 2012 249    97   26125   0.836   12520   0.399   26131   0.836   12524   0.399     70108       3   70106    7657   15344    9390    9395   28319       0     205      50     107      11      10      27    6467    1855    3733     176     176     527   63420    5750   11501    9200    9207   27762       3      14       2       4       3       2       3       2       0       0       0       0       0       0       0      14       2       3       3       2       3       0       0     514
 2012 250    98   26122   0.836   12519   0.399   26129   0.836   12523   0.399     70105       3   70102    7656   15343    9390    9395   28319       0     204      50     107      11      10      27    6465    1854    3732     176     176     527   63419    5750   11501    9200    9207   27761       3      14       2       4       3       2       3       2       0       0       0       0       0       0       0      14       2       3       3       2       3       0       0     518
 2012 251    99   26120   0.836   12519   0.399   26126   0.836   12523   0.399     70102       3   70099    7655   15341    9390    9395   28318       0     204      50     106      11      10      27    6463    1853    3730     176     175     527   63418    5750   11501    9200    9207   27761       3      14       2       3       3       2       3       3       0       0       0       0       0       0       1      14       2       3       3       2       3       0       0     521
 2012 252   100   26117   0.836   12519   0.399   26124   0.836   12523   0.399     70099       4   70096    7654   15339    9390    9395   28318       0     203      50     106      11      10      27    6461    1853    3729     176     175     527   63418    5749   11501    9200    9207   27761       3      14       2       3       3       2       3       3       0       0       0       0       0       0       1      14       2       3       3       2       3       0       0     524
 2012 253   101   26114   0.836   12519   0.399   26121   0.836   12523   0.399     70096       4   70092    7653   15337    9390    9394   28317       0     202      50     105      10      10      27    6458    1852    3728     176     175     527   63417    5749   11501    9200    9207   27760       4      14       2       3       3       2       3       3       0       0       0       0       0       0       1      14       2       3       3       2       3       0       1     528
 2012 254   102   26111   0.836   12519   0.399   26117   0.836   12522   0.399     70092       4   70088    7652   15335    9389    9394   28317       0     201      50     105      10      10      27    6456    1851    3726     176     175     527   63416    5749   11500    9199    9207   27760       4      14       2       3       3       2       3       3       0       0       0       0       0       0       1      14       2       3       3       2       3       0       1     532
 2012 255   103   26108   0.835   12518   0.399   26114   0.836   12522   0.399     70088       5   70084    7651   15333    9389    9394   28317       1     201      49     105      10      10      27    6453    1850    3725     176     175     527   63416    5749   11500    9199    9207   27760       4      14       2       3       3       2       3       3       0       0       0       0       0       0       1      14       2       3       3       2       3       0       1     536
 2012 256   104   26105   0.835   12518   0.399   26111   0.836   12522   0.399     70085       5   70080    7650   15331    9389    9394   28316       1     200      49     104      10      10      27    6451    1850    3723     176     175     527   63415    5749   11500    9199    9207   27759       4      14       2       3       3       2       3       4       0       0       0       0       0       0       1      14       2       3       3       2       3       0       1     540
 2012 257   105   26101   0.835   12518   0.399   26108   0.835   12522   0.399     70081       5   70076    7649   15329    9389    9394   28315       1     199      49     104      10      10      27    6448    1849    3722     176     175     527   63414    5749   11500    9199    9207   27759       5      14       2       3       3       2       3       4       0       0       0       0       0       0       1      14       2       3       3       2       3       0       1     544
 2012 258   106   26098   0.835   12518   0.399   26105   0.835   12521   0.399     70078       6   70072    7648   15327    9389    9393   28315       1     198      49     103      10      10      27    6446    1848    3720     176     175     526   63413    5749   11500    9199    9206   27759       5      14       2       3       3       2       3       4       0       0       0       0       0       0       1      14       2       3       3       2       3       0       1     548
 2012 259   107   26095   0.835   12517   0.399   26102   0.835   12521   0.399     70074       6   70068    7647   15324    9389    9393   28314       1     198      49     103      10       9      27    6443    1847    3718     176     175     526   63413    5749   11500    9199    9206   27758       5      14       2       3       3       2       3       4       0       0       0       0       0       0       1      14       2       3       3       2       3       0       1     552
 2012 260   108   26092   0.835   12517   0.399   26099   0.835   12521   0.399     70070       7   70064    7646   15322    9388    9393   28314       1     197      49     102      10       9      26    6441    1847    3717     176     175     526   63412    5749   11500    9199    9206   27758       6      14       2       3       3       2       3       5       0       0       0       0       0       0       1      14       2       3       3       2       3       0       1     556
 2012 261   109   26089   0.835   12517   0.399   26096   0.835   12521   0.399     70067       7   70060    7645   15320    9388    9393   28313       1     196      48     102      10       9      26    6438    1846    3715     176     175     526   63411    5749   11500    9199    9206   27758       6      14       2       3       3       2       3       5       0       0       0       0       0       0       1      14       2       3       3       2       3       0       1     560
 2012 262   110   26086   0.835   12517   0.399   26092   0.835   12520   0.399     70063       8   70056    7644   15318    9388    9393   28313       1     196      48     101      10       9      26    6436    1845    3714     176     175     526   63410    5749   11499    9199    9206   27758       7      14       2       3       3       2       3       5       0       0       0       0       0       0       1      14       2       3       3       2       3       0       1     564
 2012 263   111   26083   0.835   12516   0.399   26090   0.835   12520   0.399     70060       8   70052    7643   15316    9388    9393   28313       1     195      48     101      10       9      26    6433    1844    3712     176     175     526   63410    5749   11499    9198    9206   27757       7      14       2       3       3       2       3       6       0       0       0       0       0       0       1      14       2       3       3       2       3       0       2     568
 2012 264   112   26081   0.835   12516   0.399   26087   0.835   12520   0.399     70057       9   70049    7642   15314    9388    9392   28312       1     194      48     101      10       9      26    6431    1844    3711     176     175     526   63409    5749   11499    9198    9206   27757       7      14       2       3       3       2       3       6       0       0       0       0       0       0       1      14       2       3       3       2       3       0       2     571
 2012 265   113   26078   0.834   12516   0.399   26085   0.835   12520   0.399     70054       9   70045    7641   15313    9387    9392   28312       1     194      48     100      10       9      26    6429    1843    3710     176     175     526   63408    5749   11499    9198    9206   27757       8      14       2       3       3       2       3       6       0       0       0       0       0       0       1      14       2       3       3       2       3       0       2     575
 2012 266   114   26076   0.834   12516   0.399   26082   0.835   12520   0.399     70052      10   70042    7641   15311    9387    9392   28311       1     193      48     100      10       9      26    6427    1842    3708     176     175     525   63408    5749   11499    9198    9206   27756       8      14       2       3       3       2       3       7       0       0       0       0       0       0       2      14       2       3       3       2       3       0       2     578
 2012 267   115   26073   0.834   12516   0.399   26079   0.835   12519   0.399     70049      10   70038    7640   15309    9387    9392   28311       2     193      47     100      10       9      26    6425    1842    3707     176     175     525   63407    5749   11499    9198    9206   27756       9      14       2       3       3       2       3       7       0       0       0       0       0       0       2      14       2       3       3       2       3       0       2     582
 2012 268   116   26070   0.834   12515   0.399   26077   0.834   12519   0.399     70046      11   70035    7639   15307    9387    9392   28310       2     192      47      99      10       9      26    6423    1841    3706     176     175     525   63406    5749   11499    9198    9205   27756       9      14       2       3       3       2       3       7       0       0       0       0       0       0       2      14       2       3       3       2       3       0       2     585
 2012 269   117   26068   0.834   12515   0.399   26074   0.834   12519   0.399     70043      12   70032    7638   15306    9387    9392   28310       2     192      47      99      10       9      26    6420    1840    3704     176     175     525   63406    5748   11499    9198    9205   27755      10      14       2       3       3       2       3       8       0       0       0       0       0       0       2      14       2       3       3       2       3       0       2     589
 2012 270   118   26065   0.834   12515   0.399   26072   0.834   12519   0.399     70040      12   70028    7637   15304    9387    9391   28309       2     191      47      99      10       9      26    6418    1840    3703     176     175     525   63405    5748   11499    9198    9205   27755      10      14       2       3       3       2       3       8       0       0       0       0       0       0       2      14       2       3       3       2       3       0       3     592
 2012 271   119   26062   0.834   12515   0.399   26069   0.834   12518   0.399     70037      13   70024    7636   15302    9386    9391   28309       2     190      47      98      10       9      26    6416    1839    3702     176     175     525   63404    5748   11498    9198    9205   27755      11      14       2       3       3       2       3       9       0       0       0       0       0       0       2      14       2       3       3       2       3       0       3     596
 2012 272   120   26060   0.834   12514   0.399   26066   0.834   12518   0.399     70034      13   70021    7635   15300    9386    9391   28308       2     190      47      98      10       9      26    6413    1838    3700     175     175     525   63404    5748   11498    9197    9205   27754      11      14       2       3       3       2       3       9       0       0       0       0       0       0       2      14       2       3       3       2       3       0       3     599
 2012 273   121   26057   0.834   12514   0.399   26063   0.834   12518   0.399     70031      14   70017    7634   15298    9386    9391   28308       2     189      47      98      10       9      26    6411    1838    3699     175     175     525   63403    5748   11498    9197    9205   27754      12      14       2       3       3       2       3       9       0       0       0       0       0       0       2      14       2       3       3       2       3       0       3     603
 2012 274   122   26054   0.834   12514   0.399   26061   0.834   12518   0.399     70028      15   70013    7634   15296    9386    9391   28307       2     189      46      97      10       9      26    6409    1837    3697     175     175     524   63402    5748   11498    9197    9205   27754      12      14       2       3       3       2       3      10       0       0       0       0       0       0       2      14       2       3       3       2       3       0       3     607
 2012 275   123   26052   0.834   12514   0.399   26058   0.834   12518   0.399     70025      16   70010    7633   15294    9386    9391   28307       3     188      46      97      10       9      26    6406    1836    3696     175     175     524   63401    5748   11498    9197    9205   27753      13      14       2       3       3       2       3      10       0       0       0       0       0       0       3      14       2       3       3       2       3       0       4     610
 2012 276   124   26049   0.834   12514   0.399   26055   0.834   12517   0.399     70022      16   70006    7632   15292    9386    9390   28306       3     188      46      97      10       9      26    6404    1836    3694     175     175     524   63401    5748   11498    9197    9205   27753      13      14       2       3       3       2       3      11       0       0       0       0       0       0       3      14       2       3       3       2       3       0       4     614
 2012 277   125   26046   0.833   12513   0.399   26053   0.834   12517   0.399     70019      17   70002    7631   15290    9385    9390   28306       3     187      46      96      10       9      26    6401    1835    3693     175     174     524   63400    5748   11498    9197    9204   27753      14      14       2       3       3       2       3      11       0       0       0       0       0       0       3      14       2       3       3       2       3       0       4     618
 2012 278   126   26043   0.833   12513   0.399   26050   0.834   12517   0.399     70016      18   69999    7630   15288    9385    9390   28305       3     187      46      96      10       9      26    6399    1834    3691     175     174     524   63399    5748   11498    9197    9204   27752      15      14       2       3       3       2       3      12       0       0       0       0       0       0       3      14       2       3       3       2       3       0       5     622
 2012 279   127   26041   0.833   12513   0.398   26047   0.834   12517   0.399     70013      19   69995    7629   15286    9385    9390   28305       3     186      46      96      10       9      26    6397    1833    3690     175     174     524   63398    5748   11497    9197    9204   27752      15      14       2       3       3       2       3      12       0       0       0       0       0       0       3      14       2       3       3       2       3       0       5     625
 2012 280   128   26038   0.833   12513   0.398   26044   0.833   12516   0.399     70010      19   69991    7628   15284    9385    9390   28304       4     185      46      95      10       9      26    6394    1833    3688     175     174     524   63398    5748   11497    9197    9204   27752      16      14       2       3       3       2       3      13       0       0       0       0       0       0       3      14       2       3       3       2       3       0       5     629
 2012 281   129   26035   0.833   12512   0.398   26041   0.833   12516   0.399     70007      20   69987    7627   15282    9385    9389   28304       4     185      46      95      10       9      26    6391    1832    3686     175     174     524   63397    5748   11497    9196    9204   27751      16      14       2       3       3       2       3      13       0       0       0       0       0       0       3      14       2       3       3       2       3       0       5     633
 2012 282   130   26032   0.833   12512   0.398   26038   0.833   12516   0.399     70004      21   69983    7626   15280    9384    9389   28303       4     184      45      95      10       9      26    6389    1831    3685     175     174     523   63396    5748   11497    9196    9204   27751      17      14       2       3       3       2       3      13       0       0       0       0       0       0       3      14       2       3       3       2       3       0       6     637
 2012 283   131   26029   0.833   12512   0.398   26036   0.833   12516   0.399     70001      22   69979    7625   15278    9384    9389   28303       4     184      45      94      10       9      26    6386    1830    3683     175     174     523   63395    5748   11497    9196    9204   27751      18      14       2       3       3       2       3      14       0       0       0       0       0       0       4      14       2       3       3       2       3       0       6     641
 2012 284   132   26027   0.833   12512   0.398   26033   0.833   12515   0.399     69999      23   69976    7624   15276    9384    9389   28302       4     183      45      94      10       9      26    6384    1830    3682     175     174     523   63395    5748   11497    9196    9204   27750      18      14       2       3       3       2       3      15       0       0       0       0       0       0       4      14       2       3       3       2       3       0       7     645
 2012 285   133   26024   0.833   12511   0.398   26031   0.833   12515   0.399     69995      22   69972    7624   15274    9384    9389   28302       5     183      45      94      10       9      26    6382    1829    3680     175     174     523   63394    5748   11497    9196    9204   27750      18      14       2       3       3       2       3      14       0       0       0       0       0       0       4      14       2       3       3       2       3       0       7     648
 2012 286   134   26022   0.833   12511   0.398   26028   0.833   12515   0.399     69991      22   69969    7623   15273    9384    9389   28301       5     182      45      94       9       9      25    6380    1829    3679     175     174     523   63393    5748   11497    9196    9203   27750      17      14       2       3       3       2       3      14       0       0       0       0       0       0       4      14       2       3       3       2       3       0       7     651
