*SOIL-PLANT-ATMOSPHERE MODULE OUTPUT FILE

*DSSAT Cropping System Model Ver. 4.8.2.000 -release  APR 22, 2025 15:19:20

*RUN   1        : F1 NE 4                   RICER048 CRDA1201    1
 MODEL          : RICER048 - Rice
 EXPERIMENT     : CRDA1201 WH ESSAI VARIETE DAROU PAKA 2012
 DATA PATH      :
 TREATMENT  1   : F1 NE 4                   RICER048
  
!                                                                                                                                                                                        Soil evaporation (mm/d) by soil depth (cm):
!                                                                                                                                                                                        0-5    5-15   15-30   30-45   45-60   60-80  80-100
@YEAR DOY   DAS   SRAA  TMAXA  TMINA    REFA    EOAA    EOPA    EOSA    ETAA    EPAA    ESAA    EFAA    EMAA    EOAC    ETAC    EPAC    ESAC    EFAC    EMAC    KCAA    KBSA    KEAA    ES1D    ES2D    ES3D    ES4D    ES5D    ES6D    ES7D   TRWUD   TWUPD
 2012 153     1  23.70  40.00  23.80 -99.000   9.136   0.000   9.136   1.117   0.000   1.117   0.000   0.000    9.14    1.12    0.00    1.12    0.00    0.00 -99.000 -99.000 -99.000   0.927   0.117   0.040   0.015   0.008   0.006   0.004   0.000   0.000
 2012 154     2  24.70  38.30  23.80 -99.000   8.735   0.000   8.735   1.032   0.000   1.032   0.000   0.000   17.87    2.15    0.00    2.15    0.00    0.00 -99.000 -99.000 -99.000   0.843   0.117   0.040   0.015   0.008   0.006   0.004   0.000   0.000
 2012 155     3  22.30  39.60  24.70 -99.000   8.409   0.000   8.409   0.982   0.000   0.982   0.000   0.000   26.28    3.13    0.00    3.13    0.00    0.00 -99.000 -99.000 -99.000   0.794   0.116   0.040   0.015   0.008   0.006   0.004   0.000   0.000
 2012 156     4  22.90  38.50  25.70 -99.000   8.235   0.000   8.235   5.905   0.000   5.905   0.000   0.000   34.52    9.04    0.00    9.04    0.00    0.00 -99.000 -99.000 -99.000   1.396   1.073   1.014   0.708   0.560   0.627   0.526   0.000   0.000
 2012 157     5  24.00  39.60  24.80 -99.000   9.159   0.000   9.159   5.862   0.000   5.862   0.000   0.000   43.67   14.90    0.00   14.90    0.00    0.00 -99.000 -99.000 -99.000   1.428   1.053   0.992   0.696   0.554   0.619   0.520   0.000   0.000
 2012 158     6  23.60  39.80  24.70 -99.000   9.007   0.000   9.007   0.995   0.000   0.995   0.000   0.000   52.68   15.89    0.00   15.89    0.00    0.00 -99.000 -99.000 -99.000   0.814   0.111   0.039   0.014   0.007   0.006   0.004   0.000   0.000
 2012 159     7  24.20  39.50  23.70 -99.000   9.011   0.000   9.011   0.920   0.000   0.920   0.000   0.000   61.69   16.81    0.00   16.81    0.00    0.00 -99.000 -99.000 -99.000   0.741   0.110   0.039   0.014   0.007   0.006   0.004   0.000   0.000
 2012 160     8  24.00  39.40  23.50 -99.000   8.849   0.000   8.849   0.853   0.000   0.853   0.000   0.000   70.54   17.67    0.00   17.67    0.00    0.00 -99.000 -99.000 -99.000   0.674   0.110   0.038   0.014   0.007   0.006   0.004   0.000   0.000
 2012 161     9  23.80  40.10  25.10 -99.000   9.129   0.000   9.129   0.791   0.000   0.791   0.000   0.000   79.67   18.46    0.00   18.46    0.00    0.00 -99.000 -99.000 -99.000   0.613   0.109   0.038   0.014   0.007   0.006   0.004   0.000   0.000
 2012 162    10  24.20  41.10  26.40 -99.000   9.765   0.000   9.765   0.875   0.000   0.875   0.000   0.000   89.44   19.33    0.00   19.33    0.00    0.00 -99.000 -99.000 -99.000   0.698   0.109   0.038   0.014   0.007   0.006   0.004   0.000   0.000
 2012 163    11  20.80  39.40  25.70 -99.000   7.822   0.000   7.822   1.029   0.000   1.029   0.000   0.000   97.26   20.36    0.00   20.36    0.00    0.00 -99.000 -99.000 -99.000   0.851   0.108   0.038   0.014   0.007   0.006   0.004   0.000   0.000
 2012 164    12  24.30  38.40  25.00 -99.000   8.707   0.000   8.707   1.103   0.000   1.103   0.000   0.000  105.97   21.46    0.00   21.46    0.00    0.00 -99.000 -99.000 -99.000   0.924   0.110   0.038   0.014   0.007   0.006   0.004   0.000   0.000
 2012 165    13  16.40  36.20  24.60 -99.000   5.258   0.000   5.258   5.258   0.000   5.258   0.000   0.000  111.22   26.72    0.00   26.72    0.00    0.00 -99.000 -99.000 -99.000   1.351   0.939   0.863   0.609   0.488   0.547   0.461   0.000   0.000
 2012 166    14  21.90  36.40  24.80 -99.000   7.122   0.000   7.122   5.878   0.000   5.878   0.000   0.000  118.35   32.60    0.00   32.60    0.00    0.00 -99.000 -99.000 -99.000   1.540   1.064   0.959   0.667   0.536   0.603   0.509   0.000   0.000
 2012 167    15  23.90  35.50  25.60 -99.000   7.439   0.000   7.439   5.865   0.000   5.865   0.000   0.000  125.78   38.46    0.00   38.46    0.00    0.00 -99.000 -99.000 -99.000   1.555   1.071   0.960   0.654   0.528   0.595   0.503   0.000   0.000
 2012 168    16  23.60  37.90  24.40 -99.000   8.275   0.000   8.275   5.834   0.000   5.834   0.000   0.000  134.06   44.30    0.00   44.30    0.00    0.00 -99.000 -99.000 -99.000   1.554   1.073   0.964   0.640   0.519   0.587   0.497   0.000   0.000
 2012 169    17  21.30  32.70  25.40 -99.000   6.294   0.000   6.294   5.991   0.000   5.991   0.000   0.000  140.35   50.29    0.00   50.29    0.00    0.00 -99.000 -99.000 -99.000   1.695   1.099   0.984   0.631   0.511   0.579   0.492   0.000   0.000
 2012 170    18  19.60  32.30  24.90 -99.000   5.817   0.000   5.817   5.817   0.000   5.817   0.000   0.000  146.17   56.10    0.00   56.10    0.00    0.00 -99.000 -99.000 -99.000   1.693   1.072   0.962   0.603   0.478   0.544   0.463   0.000   0.000
 2012 171    19  22.80  34.30  23.90 -99.000   6.820   0.000   6.820   5.891   0.000   5.891   0.000   0.000  152.99   62.00    0.00   62.00    0.00    0.00 -99.000 -99.000 -99.000   1.595   1.104   1.014   0.639   0.494   0.564   0.481   0.000   0.000
 2012 172    20  23.10  32.20  24.70 -99.000   6.750   0.000   6.750   5.767   0.000   5.767   0.000   0.000  159.74   67.76    0.00   67.76    0.00    0.00 -99.000 -99.000 -99.000   1.524   1.081   1.006   0.638   0.486   0.556   0.476   0.000   0.000
 2012 173    21  22.70  36.20  24.50 -99.000   7.292   0.000   7.292   5.735   0.000   5.735   0.000   0.000  167.03   73.50    0.00   73.50    0.00    0.00 -99.000 -99.000 -99.000   1.533   1.073   1.002   0.629   0.479   0.549   0.471   0.000   0.000
 2012 174    22  22.00  37.30  24.70 -99.000   7.479   0.000   7.479   5.532   0.000   5.532   0.000   0.000  174.51   79.03    0.00   79.03    0.00    0.00 -99.000 -99.000 -99.000   1.412   1.040   0.986   0.616   0.471   0.542   0.465   0.000   0.000
 2012 175    23  17.70  31.90  24.70 -99.000   5.125   0.000   5.125   1.098   0.000   1.098   0.000   0.000  179.64   80.13    0.00   80.13    0.00    0.00 -99.000 -99.000 -99.000   0.920   0.113   0.038   0.013   0.006   0.005   0.003   0.000   0.000
 2012 176    24  11.30  31.10  24.40 -99.000   3.264   0.000   3.264   3.264   0.000   3.264   0.000   0.000  182.90   83.39    0.00   83.39    0.00    0.00 -99.000 -99.000 -99.000   0.925   0.617   0.558   0.341   0.262   0.302   0.260   0.000   0.000
 2012 177    25  18.40  31.30  23.40 -99.000   5.343   0.000   5.343   5.343   0.000   5.343   0.000   0.000  188.24   88.73    0.00   88.73    0.00    0.00 -99.000 -99.000 -99.000   1.570   1.083   0.906   0.555   0.393   0.448   0.387   0.000   0.000
 2012 178    26  23.50  33.80  23.90 -99.000   7.046   0.000   7.046   6.272   0.000   6.272   0.000   0.000  195.29   95.01    0.00   95.01    0.00    0.00 -99.000 -99.000 -99.000   1.706   1.252   1.116   0.729   0.492   0.524   0.453   0.000   0.000
 2012 179    27  20.10  30.30  24.00 -99.000   5.748   0.000   5.748   5.748   0.000   5.748   0.000   0.000  201.04  100.76    0.00  100.76    0.00    0.00 -99.000 -99.000 -99.000   1.521   1.107   1.014   0.697   0.503   0.487   0.421   0.000   0.000
 2012 180    28  17.00  31.70  23.60 -99.000   4.935   0.000   4.935   4.935   0.000   4.935   0.000   0.000  205.97  105.69    0.00  105.69    0.00    0.00 -99.000 -99.000 -99.000   1.390   0.913   0.839   0.584   0.445   0.412   0.352   0.000   0.000
 2012 181    29  18.80  30.10  24.20 -99.000   5.431   0.000   5.431   5.431   0.000   5.431   0.000   0.000  211.40  111.12    0.00  111.12    0.00    0.00 -99.000 -99.000 -99.000   1.600   0.995   0.898   0.625   0.485   0.453   0.374   0.000   0.000
 2012 182    30  17.30  29.10  24.30 -99.000   4.952   0.000   4.952   4.952   0.000   4.952   0.000   0.000  216.36  116.07    0.00  116.07    0.00    0.00 -99.000 -99.000 -99.000   1.452   0.909   0.817   0.567   0.443   0.426   0.336   0.000   0.000
 2012 183    31  19.10  30.60  23.70 -99.000   5.530   0.000   5.530   5.530   0.000   5.530   0.000   0.000  221.89  121.60    0.00  121.60    0.00    0.00 -99.000 -99.000 -99.000   1.549   1.021   0.927   0.645   0.506   0.501   0.380   0.000   0.000
 2012 184    32  14.00  29.70  23.70 -99.000   3.981   0.000   3.981   3.981   0.000   3.981   0.000   0.000  225.87  125.58    0.00  125.58    0.00    0.00 -99.000 -99.000 -99.000   1.082   0.783   0.674   0.459   0.356   0.365   0.261   0.000   0.000
 2012 185    33  14.90  29.40  24.00 -99.000   4.263   0.000   4.263   4.263   0.000   4.263   0.000   0.000  230.13  129.85    0.00  129.85    0.00    0.00 -99.000 -99.000 -99.000   1.173   0.863   0.712   0.483   0.371   0.390   0.271   0.000   0.000
 2012 186    34  19.30  30.60  23.60 -99.000   5.610   0.000   5.610   5.610   0.000   5.610   0.000   0.000  235.74  135.46    0.00  135.46    0.00    0.00 -99.000 -99.000 -99.000   1.539   1.047   0.931   0.652   0.507   0.539   0.394   0.000   0.000
 2012 187    35  19.10  31.30  23.10 -99.000   5.524   0.000   5.524   5.524   0.000   5.524   0.000   0.000  241.26  140.98    0.00  140.98    0.00    0.00 -99.000 -99.000 -99.000   1.509   1.009   0.903   0.635   0.502   0.542   0.424   0.000   0.000
 2012 188    36  20.00  32.60  23.50 -99.000   5.914   0.000   5.914   5.914   0.000   5.914   0.000   0.000  247.18  146.89    0.00  146.89    0.00    0.00 -99.000 -99.000 -99.000   1.603   1.062   0.961   0.678   0.538   0.591   0.482   0.000   0.000
 2012 189    37  14.30  28.00  23.80 -99.000   4.000   0.000   4.000   4.000   0.000   4.000   0.000   0.000  251.18  150.89    0.00  150.89    0.00    0.00 -99.000 -99.000 -99.000   1.058   0.716   0.654   0.461   0.367   0.406   0.338   0.000   0.000
 2012 190    38  16.40  28.90  23.60 -99.000   4.643   0.000   4.643   4.643   0.000   4.643   0.000   0.000  255.82  155.54    0.00  155.54    0.00    0.00 -99.000 -99.000 -99.000   1.303   0.826   0.742   0.520   0.412   0.457   0.383   0.000   0.000
 2012 191    39  19.30  30.70  23.60 -99.000   5.602   0.000   5.602   5.602   0.000   5.602   0.000   0.000  261.42  161.14    0.00  161.14    0.00    0.00 -99.000 -99.000 -99.000   1.581   1.051   0.895   0.616   0.483   0.532   0.445   0.000   0.000
 2012 192    40  19.90  29.50  24.10 -99.000   5.717   0.000   5.717   5.717   0.000   5.717   0.000   0.000  267.14  166.86    0.00  166.86    0.00    0.00 -99.000 -99.000 -99.000   1.580   1.081   0.931   0.637   0.496   0.541   0.451   0.000   0.000
 2012 193    41  21.60  31.30  23.10 -99.000   6.276   0.000   6.276   6.276   0.000   6.276   0.000   0.000  273.41  173.13    0.00  173.13    0.00    0.00 -99.000 -99.000 -99.000   1.705   1.140   1.030   0.717   0.561   0.613   0.510   0.000   0.000
 2012 194    42  18.80  29.50  23.70 -99.000   5.350   0.000   5.350   5.350   0.000   5.350   0.000   0.000  278.76  178.48    0.00  178.48    0.00    0.00 -99.000 -99.000 -99.000   1.453   0.977   0.873   0.609   0.479   0.524   0.437   0.000   0.000
 2012 195    43  13.70  30.50  23.90 -99.000   3.972   0.000   3.972   3.972   0.000   3.972   0.000   0.000  282.74  182.45    0.00  182.45    0.00    0.00 -99.000 -99.000 -99.000   1.111   0.729   0.640   0.444   0.348   0.382   0.318   0.000   0.000
 2012 196    44  17.60  29.50  24.10 -99.000   5.064   0.000   5.064   5.064   0.000   5.064   0.000   0.000  287.80  187.52    0.00  187.52    0.00    0.00 -99.000 -99.000 -99.000   1.389   0.970   0.828   0.565   0.439   0.476   0.396   0.000   0.000
 2012 197    45  14.20  27.20  24.10 -99.000   3.980   0.000   3.980   3.980   0.000   3.980   0.000   0.000  291.78  191.50    0.00  191.50    0.00    0.00 -99.000 -99.000 -99.000   1.070   0.740   0.661   0.457   0.354   0.381   0.316   0.000   0.000
 2012 198    46  20.70  30.10  23.40 -99.000   5.952   0.000   5.952   5.952   0.000   5.952   0.000   0.000  297.73  197.45    0.00  197.45    0.00    0.00 -99.000 -99.000 -99.000   1.625   1.073   0.970   0.682   0.538   0.581   0.483   0.000   0.000
 2012 199    47  18.40  30.20  23.40 -99.000   5.288   0.000   5.288   5.288   0.000   5.288   0.000   0.000  303.02  202.74    0.00  202.74    0.00    0.00 -99.000 -99.000 -99.000   1.453   0.952   0.855   0.601   0.476   0.519   0.433   0.000   0.000
 2012 200    48  20.10  31.90  23.30 -99.000   5.889   0.000   5.889   5.889   0.000   5.889   0.000   0.000  308.91  208.63    0.00  208.63    0.00    0.00 -99.000 -99.000 -99.000   1.613   1.060   0.953   0.668   0.529   0.581   0.486   0.000   0.000
 2012 201    49  19.70  30.30  24.00 -99.000   5.671   0.013   5.658   5.671   0.013   5.658   0.000   0.000  314.58  214.30    0.01  214.29    0.00    0.00 -99.000 -99.000 -99.000   1.524   1.010   0.922   0.647   0.513   0.567   0.475   0.001   0.302
 2012 202    50  15.10  29.40  24.30 -99.000   4.311   0.015   4.297   4.311   0.015   4.297   0.000   0.000  318.89  218.61    0.03  218.58    0.00    0.00 -99.000 -99.000 -99.000   1.173   0.763   0.697   0.488   0.387   0.429   0.360   0.001   0.302
 2012 203    51  14.80  28.20  24.10 -99.000   4.176   0.019   4.157   4.176   0.019   4.157   0.000   0.000  323.07  222.79    0.05  222.74    0.00    0.00 -99.000 -99.000 -99.000   1.174   0.742   0.666   0.464   0.366   0.405   0.340   0.002   0.301
 2012 204    52  21.80  31.10  23.40 -99.000   6.335   0.036   6.297   6.334   0.036   6.297   0.000   0.000  329.40  229.12    0.08  229.04    0.00    0.00 -99.000 -99.000 -99.000   1.801   1.136   1.007   0.697   0.547   0.604   0.506   0.004   0.301
 2012 205    53  14.90  29.50  24.10 -99.000   4.262   0.031   4.231   4.262   0.031   4.231   0.000   0.000  333.67  233.38    0.11  233.27    0.00    0.00 -99.000 -99.000 -99.000   1.150   0.808   0.702   0.475   0.366   0.398   0.332   0.003   0.301
 2012 206    54  17.40  29.20  24.10 -99.000   4.975   0.044   4.930   4.974   0.044   4.930   0.000   0.000  338.64  238.36    0.16  238.20    0.00    0.00 -99.000 -99.000 -99.000   1.334   0.915   0.824   0.568   0.436   0.467   0.386   0.004   0.302
 2012 207    55  20.20  30.50  22.60 -99.000   5.775   0.062   5.711   5.773   0.062   5.711   0.000   0.000  344.42  244.13    0.22  243.91    0.00    0.00 -99.000 -99.000 -99.000   1.551   1.041   0.936   0.657   0.514   0.553   0.458   0.006   0.304
 2012 208    56  16.60  29.90  23.50 -99.000   4.746   0.061   4.684   4.745   0.061   4.684   0.000   0.000  349.16  248.87    0.28  248.59    0.00    0.00 -99.000 -99.000 -99.000   1.280   0.859   0.760   0.533   0.420   0.455   0.378   0.006   0.306
 2012 209    57  19.90  30.10  24.40 -99.000   5.742   0.087   5.653   5.740   0.087   5.653   0.000   0.000  354.90  254.61    0.37  254.25    0.00    0.00 -99.000 -99.000 -99.000   1.535   1.075   0.917   0.635   0.499   0.541   0.451   0.009   0.309
 2012 210    58  14.60  29.30  24.60 -99.000   4.175   0.072   4.102   4.174   0.072   4.102   0.000   0.000  359.08  258.79    0.44  258.35    0.00    0.00 -99.000 -99.000 -99.000   1.109   0.771   0.670   0.464   0.364   0.395   0.329   0.007   0.313
 2012 211    59  17.80  28.50  24.10 -99.000   5.035   0.098   4.936   5.034   0.098   4.936   0.000   0.000  364.11  263.82    0.54  263.28    0.00    0.00 -99.000 -99.000 -99.000   1.361   0.903   0.799   0.558   0.439   0.477   0.398   0.010   0.321
 2012 212    60  20.00  30.50  23.10 -99.000   5.727   0.125   5.600   5.726   0.125   5.600   0.000   0.000  369.84  269.55    0.66  268.88    0.00    0.00 -99.000 -99.000 -99.000   1.525   1.004   0.909   0.639   0.506   0.554   0.463   0.013   0.328
 2012 213    61  18.50  30.70  24.20 -99.000   5.318   0.136   5.179   5.315   0.136   5.179   0.000   0.000  375.16  274.86    0.80  274.06    0.00    0.00 -99.000 -99.000 -99.000   1.387   0.922   0.846   0.594   0.472   0.521   0.437   0.014   0.338
 2012 214    62  14.80  28.70  24.00 -99.000   4.154   0.118   4.033   4.151   0.118   4.033   0.000   0.000  379.31  279.01    0.92  278.10    0.00    0.00 -99.000 -99.000 -99.000   1.113   0.721   0.650   0.455   0.361   0.399   0.335   0.012   0.344
 2012 215    63  17.80  28.30  23.70 -99.000   4.991   0.157   4.830   4.987   0.157   4.830   0.000   0.000  384.30  284.00    1.07  282.93    0.00    0.00 -99.000 -99.000 -99.000   1.322   0.871   0.784   0.546   0.431   0.477   0.400   0.016   0.350
 2012 216    64  20.20  30.80  22.20 -99.000   5.705   0.199   5.502   5.700   0.199   5.502   0.000   0.000  390.01  289.70    1.27  288.43    0.00    0.00 -99.000 -99.000 -99.000   1.455   0.987   0.906   0.634   0.501   0.554   0.465   0.020   0.355
 2012 217    65  18.80  30.10  24.10 -99.000   5.326   0.206   5.115   5.321   0.206   5.115   0.000   0.000  395.33  295.02    1.48  293.54    0.00    0.00 -99.000 -99.000 -99.000   1.356   0.974   0.851   0.579   0.450   0.493   0.412   0.021   0.363
 2012 218    66  20.80  29.80  24.00 -99.000   5.910   0.255   5.650   5.905   0.255   5.650   0.000   0.000  401.24  300.93    1.73  299.19    0.00    0.00 -99.000 -99.000 -99.000   1.493   1.122   0.958   0.639   0.487   0.521   0.431   0.026   0.372
 2012 219    67  19.10  28.50  23.60 -99.000   5.325   0.256   5.063   5.319   0.256   5.063   0.000   0.000  406.57  306.25    1.99  304.26    0.00    0.00 -99.000 -99.000 -99.000   1.327   0.928   0.850   0.598   0.463   0.492   0.406   0.026   0.382
 2012 220    68  23.10  30.70  22.80 -99.000   6.523   0.350   6.165   6.516   0.350   6.165   0.000   0.000  413.09  312.76    2.34  310.42    0.00    0.00 -99.000 -99.000 -99.000   1.585   1.099   1.023   0.728   0.580   0.628   0.521   0.035   0.394
 2012 221    69  21.50  29.90  24.10 -99.000   6.033   0.359   5.665   6.023   0.359   5.665   0.000   0.000  419.12  318.79    2.70  316.09    0.00    0.00 -99.000 -99.000 -99.000   1.499   1.010   0.926   0.656   0.522   0.573   0.479   0.036   0.406
 2012 222    70  13.30  29.50  23.80 -99.000   3.733   0.247   3.481   3.728   0.247   3.481   0.000   0.000  422.86  322.51    2.95  319.57    0.00    0.00 -99.000 -99.000 -99.000   0.948   0.622   0.563   0.395   0.314   0.347   0.292   0.025   0.423
 2012 223    71  21.40  30.20  23.00 -99.000   5.992   0.427   5.552   5.979   0.427   5.552   0.000   0.000  428.85  328.49    3.37  325.12    0.00    0.00 -99.000 -99.000 -99.000   1.528   1.011   0.896   0.624   0.493   0.544   0.457   0.043   0.440
 2012 224    72  17.40  29.90  23.00 -99.000   4.858   0.388   4.463   4.852   0.388   4.463   0.000   0.000  433.71  333.35    3.76  329.58    0.00    0.00 -99.000 -99.000 -99.000   1.200   0.857   0.743   0.502   0.388   0.421   0.352   0.039   0.453
 2012 225    73  20.00  28.40  24.10 -99.000   5.535   0.486   5.044   5.530   0.486   5.044   0.000   0.000  439.24  338.88    4.25  334.63    0.00    0.00 -99.000 -99.000 -99.000   1.332   0.982   0.849   0.576   0.442   0.471   0.391   0.049   0.473
 2012 226    74  17.50  28.70  23.80 -99.000   4.833   0.465   4.361   4.827   0.465   4.361   0.000   0.000  444.07  343.70    4.71  338.99    0.00    0.00 -99.000 -99.000 -99.000   1.138   0.841   0.735   0.504   0.389   0.413   0.341   0.047   0.493
 2012 227    75  12.50  27.20  23.40 -99.000   3.381   0.351   3.021   3.372   0.351   3.021   0.000   0.000  447.46  347.07    5.06  342.01    0.00    0.00 -99.000 -99.000 -99.000   0.784   0.586   0.506   0.349   0.271   0.287   0.237   0.035   0.516
 2012 228    76  19.70  30.60  22.90 -99.000   5.506   0.620   4.876   5.496   0.620   4.876   0.000   0.000  452.96  352.57    5.68  346.89    0.00    0.00 -99.000 -99.000 -99.000   1.302   0.901   0.798   0.563   0.445   0.474   0.394   0.062   0.540
 2012 229    77  18.70  29.60  23.80 -99.000   5.177   0.641   4.528   5.169   0.641   4.528   0.000   0.000  458.14  357.74    6.32  351.41    0.00    0.00 -99.000 -99.000 -99.000   1.202   0.838   0.739   0.520   0.412   0.445   0.371   0.064   0.560
 2012 230    78  18.20  28.70  24.40 -99.000   4.999   0.675   4.314   4.989   0.675   4.314   0.000   0.000  463.14  362.73    7.00  355.73    0.00    0.00 -99.000 -99.000 -99.000   1.152   0.808   0.700   0.491   0.389   0.421   0.353   0.067   0.589
 2012 231    79  11.80  27.30  23.90 -99.000   3.171   0.463   2.696   3.159   0.463   2.696   0.000   0.000  466.31  365.89    7.46  358.42    0.00    0.00 -99.000 -99.000 -99.000   0.728   0.500   0.437   0.306   0.242   0.263   0.221   0.046   0.620
 2012 232    80  22.20  30.20  23.70 -99.000   6.141   0.971   5.157   6.127   0.971   5.157   0.000   0.000  472.45  372.01    8.43  363.58    0.00    0.00 -99.000 -99.000 -99.000   1.426   0.933   0.830   0.582   0.461   0.503   0.422   0.097   0.645
 2012 233    81  20.60  30.60  24.30 -99.000   5.706   0.998   4.696   5.694   0.998   4.696   0.000   0.000  478.16  377.71    9.43  368.28    0.00    0.00 -99.000 -99.000 -99.000   1.282   0.857   0.759   0.531   0.421   0.460   0.387   0.100   0.665
 2012 234    82  16.20  30.20  24.20 -99.000   4.450   0.850   3.586   4.436   0.850   3.586   0.000   0.000  482.61  382.15   10.28  371.86    0.00    0.00 -99.000 -99.000 -99.000   0.979   0.669   0.580   0.403   0.317   0.347   0.292   0.085   0.699
 2012 235    83  17.60  29.00  24.30 -99.000   4.766   0.981   3.765   4.747   0.981   3.765   0.000   0.000  487.37  386.89   11.26  375.63    0.00    0.00 -99.000 -99.000 -99.000   1.019   0.727   0.612   0.421   0.329   0.358   0.299   0.098   0.733
 2012 236    84  19.40  29.20  23.90 -99.000   5.227   1.169   4.036   5.206   1.169   4.036   0.000   0.000  492.60  392.10   12.43  379.67    0.00    0.00 -99.000 -99.000 -99.000   1.091   0.762   0.663   0.457   0.356   0.385   0.322   0.117   0.765
 2012 237    85  16.00  29.90  23.50 -99.000   4.311   1.051   3.241   4.292   1.051   3.241   0.000   0.000  496.91  396.39   13.48  382.91    0.00    0.00 -99.000 -99.000 -99.000   0.881   0.601   0.528   0.368   0.289   0.313   0.261   0.105   0.800
 2012 238    86  18.30  29.60  23.20 -99.000   4.889   1.286   3.582   4.869   1.286   3.582   0.000   0.000  501.80  401.26   14.77  386.49    0.00    0.00 -99.000 -99.000 -99.000   0.966   0.686   0.584   0.404   0.316   0.342   0.285   0.129   0.841
 2012 239    87  18.80  27.40  24.30 -99.000   4.920   1.400   3.496   4.897   1.400   3.496   0.000   0.000  506.72  406.15   16.17  389.99    0.00    0.00 -99.000 -99.000 -99.000   0.917   0.684   0.587   0.398   0.308   0.329   0.274   0.140   0.879
 2012 240    88  19.00  29.10  23.60 -99.000   5.016   1.553   3.445   4.997   1.553   3.445   0.000   0.000  511.74  411.15   17.72  393.43    0.00    0.00 -99.000 -99.000 -99.000   0.910   0.625   0.573   0.404   0.316   0.337   0.280   0.155   0.924
 2012 241    89  19.00  29.10  23.10 -99.000   4.968   1.661   3.285   4.946   1.661   3.285   0.000   0.000  516.70  416.10   19.38  396.71    0.00    0.00 -99.000 -99.000 -99.000   0.879   0.583   0.535   0.380   0.303   0.329   0.275   0.166   0.972
 2012 242    90  19.00  30.10  23.20 -99.000   5.003   1.806   3.174   4.981   1.806   3.174   0.000   0.000  521.71  421.08   21.19  399.89    0.00    0.00 -99.000 -99.000 -99.000   0.871   0.563   0.511   0.361   0.287   0.315   0.265   0.181   1.023
 2012 243    91  23.20  29.10  23.80 -99.000   6.048   2.346   3.673   6.019   2.346   3.673   0.000   0.000  527.75  427.10   23.54  403.56    0.00    0.00 -99.000 -99.000 -99.000   1.026   0.657   0.587   0.412   0.327   0.360   0.303   0.235   1.078
 2012 244    92  15.80  28.90  23.80 -99.000   4.086   1.663   2.397   4.061   1.663   2.397   0.000   0.000  531.84  431.16   25.20  405.96    0.00    0.00 -99.000 -99.000 -99.000   0.665   0.439   0.385   0.267   0.211   0.233   0.196   0.166   1.134
 2012 245    93  14.00  29.50  23.50 -99.000   3.625   1.533   2.068   3.601   1.533   2.068   0.000   0.000  535.47  434.76   26.73  408.03    0.00    0.00 -99.000 -99.000 -99.000   0.570   0.396   0.334   0.229   0.179   0.196   0.165   0.153   1.202
 2012 246    94  13.70  26.50  22.90 -99.000   3.407   1.490   1.892   3.382   1.490   1.892   0.000   0.000  538.87  438.14   28.22  409.92    0.00    0.00 -99.000 -99.000 -99.000   0.511   0.370   0.311   0.212   0.164   0.177   0.147   0.149   1.257
 2012 247    95  17.50  29.80  22.20 -99.000   4.472   2.028   2.416   4.444   2.028   2.416   0.000   0.000  543.34  442.58   30.25  412.33    0.00    0.00 -99.000 -99.000 -99.000   0.637   0.470   0.409   0.276   0.212   0.225   0.186   0.203   1.309
 2012 248    96  16.30  30.10  22.80 -99.000   4.178   1.968   2.183   4.151   1.968   2.183   0.000   0.000  547.52  446.74   32.22  414.52    0.00    0.00 -99.000 -99.000 -99.000   0.566   0.419   0.373   0.254   0.195   0.206   0.170   0.197   1.362
 2012 249    97  12.60  28.00  23.80 -99.000   3.169   1.541   1.605   3.147   1.541   1.605   0.000   0.000  550.69  449.88   33.76  416.12    0.00    0.00 -99.000 -99.000 -99.000   0.412   0.305   0.271   0.188   0.147   0.155   0.127   0.154   1.426
 2012 250    98  11.60  27.50  24.20 -99.000   2.902   1.447   1.431   2.878   1.447   1.431   0.000   0.000  553.59  452.76   35.21  417.55    0.00    0.00 -99.000 -99.000 -99.000   0.364   0.268   0.239   0.167   0.132   0.143   0.118   0.145   1.471
 2012 251    99  16.30  29.20  23.80 -99.000   4.130   2.113   1.985   4.098   2.113   1.985   0.000   0.000  557.72  456.86   37.32  419.54    0.00    0.00 -99.000 -99.000 -99.000   0.502   0.369   0.329   0.230   0.182   0.204   0.169   0.211   1.510
 2012 252   100  19.10  30.10  23.40 -99.000   4.854   2.552   2.257   4.810   2.552   2.257   0.000   0.000  562.58  461.67   39.87  421.80    0.00    0.00 -99.000 -99.000 -99.000   0.573   0.399   0.370   0.266   0.214   0.235   0.201   0.255   1.547
 2012 253   101  21.40  31.20  22.40 -99.000   5.433   2.974   2.434   5.408   2.974   2.434   0.000   0.000  568.01  467.08   42.85  424.23    0.00    0.00 -99.000 -99.000 -99.000   0.641   0.430   0.392   0.281   0.226   0.250   0.214   0.297   1.596
 2012 254   102  20.80  29.40  23.90 -99.000   5.224   2.943   2.248   5.191   2.943   2.248   0.000   0.000  573.23  472.27   45.79  426.48    0.00    0.00 -99.000 -99.000 -99.000   0.617   0.401   0.358   0.254   0.203   0.224   0.192   0.294   1.652
 2012 255   103  21.80  29.20  24.10 -99.000   5.453   3.174   2.252   5.427   3.174   2.252   0.000   0.000  578.69  477.69   48.96  428.73    0.00    0.00 -99.000 -99.000 -99.000   0.626   0.406   0.359   0.252   0.200   0.221   0.189   0.317   1.713
 2012 256   104  18.10  29.60  24.00 -99.000   4.529   2.712   1.793   4.505   2.712   1.793   0.000   0.000  583.21  482.20   51.68  430.52    0.00    0.00 -99.000 -99.000 -99.000   0.499   0.319   0.287   0.201   0.159   0.177   0.150   0.271   1.775
 2012 257   105  14.90  29.40  23.90 -99.000   3.706   2.271   1.414   3.685   2.271   1.414   0.000   0.000  586.92  485.88   53.95  431.94    0.00    0.00 -99.000 -99.000 -99.000   0.391   0.251   0.228   0.159   0.126   0.140   0.119   0.227   1.841
 2012 258   106  20.90  29.60  24.00 -99.000   5.200   3.253   1.922   5.175   3.253   1.922   0.000   0.000  592.12  491.06   57.20  433.86    0.00    0.00 -99.000 -99.000 -99.000   0.519   0.343   0.313   0.219   0.173   0.193   0.163   0.325   1.898
 2012 259   107  14.90  29.20  24.20 -99.000   3.684   2.359   1.309   3.667   2.359   1.308   0.000   0.000  595.80  494.73   59.56  435.17    0.00    0.00 -99.000 -99.000 -99.000   0.343   0.233   0.216   0.151   0.119   0.134   0.113   0.236   1.949
 2012 260   108  22.20  30.20  23.20 -99.000   5.497   3.577   1.893   5.470   3.577   1.893   0.000   0.000  601.30  500.20   63.13  437.06    0.00    0.00 -99.000 -99.000 -99.000   0.489   0.338   0.315   0.220   0.173   0.195   0.164   0.358   2.015
 2012 261   109  20.90  31.20  23.40 -99.000   5.222   3.468   1.729   5.196   3.468   1.729   0.000   0.000  606.52  505.39   66.60  438.79    0.00    0.00 -99.000 -99.000 -99.000   0.443   0.308   0.288   0.201   0.158   0.179   0.151   0.347   2.066
 2012 262   110  14.80  28.50  23.80 -99.000   3.598   2.431   1.148   3.579   2.431   1.148   0.000   0.000  610.12  508.97   69.03  439.94    0.00    0.00 -99.000 -99.000 -99.000   0.319   0.207   0.186   0.128   0.100   0.113   0.095   0.243   2.136
 2012 263   111  13.20  28.80  23.20 -99.000   3.209   2.196   0.996   3.192   2.196   0.996   0.000   0.000  613.33  512.16   71.23  440.93    0.00    0.00 -99.000 -99.000 -99.000   0.285   0.192   0.160   0.108   0.083   0.092   0.077   0.220   2.202
 2012 264   112  14.70  30.10  23.20 -99.000   3.619   2.507   1.096   3.603   2.507   1.095   0.000   0.000  616.95  515.77   73.74  442.03    0.00    0.00 -99.000 -99.000 -99.000   0.302   0.221   0.179   0.120   0.091   0.099   0.082   0.251   2.254
 2012 265   113  16.40  29.80  22.90 -99.000   4.012   2.799   1.185   3.983   2.799   1.184   0.000   0.000  620.96  519.75   76.54  443.21    0.00    0.00 -99.000 -99.000 -99.000   0.321   0.236   0.196   0.132   0.101   0.109   0.089   0.280   2.302
 2012 266   114  17.20  29.60  23.80 -99.000   4.220   2.968   1.215   4.182   2.968   1.214   0.000   0.000  625.18  523.93   79.50  444.43    0.00    0.00 -99.000 -99.000 -99.000   0.331   0.230   0.200   0.138   0.107   0.114   0.094   0.297   2.354
 2012 267   115  19.10  29.90  23.30 -99.000   4.680   3.333   1.314   4.645   3.333   1.312   0.000   0.000  629.86  528.58   82.84  445.74    0.00    0.00 -99.000 -99.000 -99.000   0.356   0.250   0.214   0.149   0.116   0.125   0.103   0.333   2.411
 2012 268   116  19.60  29.60  23.80 -99.000   4.802   3.443   1.333   4.774   3.443   1.331   0.000   0.000  634.66  533.35   86.28  447.07    0.00    0.00 -99.000 -99.000 -99.000   0.358   0.258   0.217   0.150   0.117   0.126   0.105   0.344   2.470
 2012 269   117  18.80  29.50  23.50 -99.000   4.589   3.305   1.259   4.562   3.305   1.257   0.000   0.000  639.25  537.91   89.58  448.33    0.00    0.00 -99.000 -99.000 -99.000   0.338   0.243   0.205   0.142   0.110   0.119   0.099   0.330   2.534
 2012 270   118  22.30  30.90  24.30 -99.000   5.553   4.026   1.508   5.531   4.026   1.505   0.000   0.000  644.80  543.44   93.61  449.83    0.00    0.00 -99.000 -99.000 -99.000   0.405   0.290   0.245   0.170   0.132   0.143   0.120   0.403   2.599
 2012 271   119  22.00  29.10  24.10 -99.000   5.365   3.892   1.441   5.329   3.892   1.437   0.000   0.000  650.17  548.77   97.50  451.27    0.00    0.00 -99.000 -99.000 -99.000   0.390   0.271   0.234   0.162   0.127   0.138   0.115   0.389   2.662
 2012 272   120  19.60  30.10  24.20 -99.000   4.832   3.527   1.284   4.808   3.527   1.280   0.000   0.000  655.00  553.58  101.03  452.55    0.00    0.00 -99.000 -99.000 -99.000   0.353   0.235   0.207   0.144   0.113   0.124   0.104   0.353   2.732
 2012 273   121  20.20  28.80  23.40 -99.000   4.882   3.558   1.285   4.839   3.558   1.281   0.000   0.000  659.88  558.42  104.59  453.83    0.00    0.00 -99.000 -99.000 -99.000   0.360   0.230   0.205   0.144   0.113   0.124   0.105   0.356   2.803
 2012 274   122  18.90  29.10  23.30 -99.000   4.582   3.339   1.230   4.564   3.339   1.225   0.000   0.000  664.47  562.98  107.93  455.06    0.00    0.00 -99.000 -99.000 -99.000   0.344   0.224   0.196   0.136   0.107   0.118   0.099   0.334   2.867
 2012 275   123  21.20  31.10  23.60 -99.000   5.265   3.811   1.441   5.245   3.811   1.434   0.000   0.000  669.73  568.23  111.74  456.49    0.00    0.00 -99.000 -99.000 -99.000   0.384   0.261   0.236   0.164   0.128   0.142   0.119   0.381   2.933
 2012 276   124  22.70  32.10  23.20 -99.000   5.679   4.074   1.584   5.649   4.074   1.575   0.000   0.000  675.41  573.88  115.81  458.06    0.00    0.00 -99.000 -99.000 -99.000   0.426   0.283   0.257   0.179   0.141   0.157   0.132   0.407   2.994
 2012 277   125  18.60  30.60  23.40 -99.000   4.591   3.259   1.306   4.555   3.259   1.296   0.000   0.000  680.00  578.43  119.07  459.36    0.00    0.00 -99.000 -99.000 -99.000   0.367   0.231   0.208   0.144   0.113   0.127   0.106   0.326   3.059
 2012 278   126  17.40  29.50  23.80 -99.000   4.263   3.015   1.236   4.240   3.015   1.225   0.000   0.000  684.26  582.67  122.09  460.59    0.00    0.00 -99.000 -99.000 -99.000   0.355   0.220   0.195   0.134   0.105   0.117   0.098   0.301   3.125
 2012 279   127  22.40  30.00  24.00 -99.000   5.529   3.896   1.634   5.513   3.896   1.616   0.000   0.000  689.79  588.19  125.98  462.20    0.00    0.00 -99.000 -99.000 -99.000   0.436   0.293   0.266   0.184   0.144   0.160   0.134   0.390   3.182
 2012 280   128  21.20  31.90  23.50 -99.000   5.315   3.716   1.602   5.298   3.716   1.581   0.000   0.000  695.11  593.48  129.70  463.78    0.00    0.00 -99.000 -99.000 -99.000   0.421   0.284   0.261   0.181   0.142   0.159   0.133   0.372   3.236
 2012 281   129  20.30  31.60  24.00 -99.000   5.094   3.522   1.565   5.063   3.522   1.541   0.000   0.000  700.20  598.55  133.22  465.32    0.00    0.00 -99.000 -99.000 -99.000   0.424   0.274   0.251   0.174   0.136   0.153   0.129   0.352   3.300
 2012 282   130  18.50  29.20  24.00 -99.000   4.532   3.117   1.420   4.511   3.117   1.394   0.000   0.001  704.73  603.06  136.34  466.72    0.00    0.00 -99.000 -99.000 -99.000   0.366   0.252   0.231   0.160   0.125   0.142   0.118   0.312   3.336
 2012 283   131  18.70  29.80  23.50 -99.000   4.591   3.137   1.466   4.573   3.137   1.435   0.000   0.001  709.33  607.63  139.47  468.15    0.00    0.00 -99.000 -99.000 -99.000   0.363   0.259   0.241   0.168   0.131   0.149   0.124   0.314   3.369
 2012 284   132  16.70  29.60  23.30 -99.000   4.085   2.772   1.330   4.071   2.772   1.298   0.000   0.001  713.41  611.70  142.25  469.45    0.00    0.00 -99.000 -99.000 -99.000   0.319   0.235   0.220   0.154   0.119   0.137   0.115   0.277   3.399
 2012 285   133  20.20  28.80  23.80 -99.000   4.918   3.308   1.632   4.897   3.308   1.588   0.000   0.001  718.33  616.60  145.55  471.04    0.00    0.01 -99.000 -99.000 -99.000   0.389   0.289   0.267   0.187   0.145   0.169   0.141   0.331   3.429
 2012 286   134  18.20  32.00  23.30 -99.000   4.569   3.054   1.546   4.555   3.054   1.498   0.000   0.002  722.90  621.15  148.61  472.54    0.00    0.01 -99.000 -99.000 -99.000   0.376   0.274   0.247   0.173   0.134   0.160   0.133   0.305   3.455
 2012 287   135  21.20  29.10  24.30 -99.000   5.203   3.439   1.795   5.174   3.439   1.733   0.000   0.002  728.10  626.33  152.05  474.27    0.00    0.01 -99.000 -99.000 -99.000   0.445   0.320   0.280   0.197   0.152   0.184   0.154   0.344   3.485
 2012 288   136  21.00  29.20  23.90 -99.000   5.146   3.372   1.810   5.115   3.372   1.740   0.000   0.003  733.25  631.44  155.42  476.01    0.00    0.01 -99.000 -99.000 -99.000   0.445   0.323   0.280   0.196   0.152   0.187   0.157   0.337   3.511
 2012 289   137  22.40  29.70  23.80 -99.000   5.516   4.399   1.978   5.495   4.399   1.092   0.000   0.004  738.76  636.94  159.82  477.10    0.00    0.02 -99.000 -99.000 -99.000   0.918   0.112   0.035   0.013   0.006   0.006   0.003   0.440   3.541
 2012 290   138  21.90  31.60  23.80 -99.000   5.499   4.445   2.010   5.476   4.445   1.026   0.000   0.004  744.26  642.41  164.26  478.13    0.00    0.02 -99.000 -99.000 -99.000   0.857   0.107   0.034   0.012   0.006   0.006   0.003   0.445   3.569
 2012 291   139  18.40  29.70  24.10 -99.000   4.538   3.516   1.691   4.520   3.516   0.998   0.000   0.005  748.80  646.93  167.78  479.13    0.00    0.03 -99.000 -99.000 -99.000   0.836   0.103   0.033   0.012   0.006   0.006   0.003   0.352   3.599
 2012 292   140  16.90  31.00  24.40 -99.000   4.236   3.187   1.609   4.215   3.187   1.022   0.000   0.006  753.04  651.15  170.97  480.15    0.00    0.03 -99.000 -99.000 -99.000   0.864   0.099   0.032   0.012   0.006   0.005   0.003   0.319   3.171
 2012 293   141  19.80  30.80  23.40 -99.000   4.923   3.817   1.907   4.900   3.817   1.076   0.000   0.007  757.96  656.05  174.78  481.22    0.00    0.04 -99.000 -99.000 -99.000   0.920   0.099   0.031   0.011   0.006   0.005   0.003   0.382   2.741
 2012 294   142  13.70  29.10  24.00 -99.000   3.362   2.102   1.328   3.346   2.102   1.235   0.000   0.009  761.32  659.39  176.89  482.46    0.00    0.05 -99.000 -99.000 -99.000   0.346   0.219   0.184   0.130   0.102   0.139   0.117   0.210   2.415
 2012 295   143  19.80  27.80  23.80 -99.000   4.790   2.971   1.928   4.769   2.971   1.788   0.000   0.010  766.11  664.16  179.86  484.25    0.00    0.06 -99.000 -99.000 -99.000   0.523   0.322   0.258   0.182   0.143   0.196   0.165   0.297   2.252
 2012 296   144  13.40  29.70  23.00 -99.000   3.292   2.027   1.351   3.280   2.027   1.241   0.000   0.012  769.40  667.44  181.88  485.49    0.00    0.07 -99.000 -99.000 -99.000   0.363   0.230   0.177   0.125   0.098   0.136   0.114   0.203   2.078
 2012 297   145  17.40  31.20  23.80 -99.000   4.364   2.689   1.802   4.352   2.689   1.649   0.000   0.013  773.77  671.79  184.57  487.14    0.00    0.08 -99.000 -99.000 -99.000   0.472   0.309   0.235   0.167   0.131   0.182   0.153   0.269   2.000
 2012 298   146  22.50  32.40  23.40 -99.000   5.691   4.623   2.364   5.669   4.623   1.031   0.000   0.015  779.46  677.46  189.20  488.17    0.00    0.10 -99.000 -99.000 -99.000   0.880   0.099   0.028   0.010   0.005   0.005   0.003   0.462   1.913
 2012 299   147  21.50  32.70  24.10 -99.000   5.469   4.548   2.286   5.452   4.548   0.887   0.000   0.017  784.93  682.92  193.74  489.06    0.00    0.12 -99.000 -99.000 -99.000   0.746   0.090   0.028   0.010   0.005   0.005   0.003   0.455   1.506
 2012 300   148  22.60  33.30  23.10 -99.000   5.733   4.871   2.411   5.645   4.871   0.755   0.000   0.019  790.66  688.56  198.61  489.81    0.00    0.14 -99.000 -99.000 -99.000   0.619   0.084   0.027   0.010   0.005   0.005   0.003   0.487   1.029
 2012 301   149  21.20  33.10  22.20 -99.000   5.326   4.517   2.255   5.232   4.517   0.695   0.000   0.020  795.99  693.79  203.13  490.51    0.00    0.16 -99.000 -99.000 -99.000   0.565   0.080   0.027   0.010   0.005   0.005   0.003   0.452   0.762
 2012 302   150  19.50  31.20  23.20 -99.000   4.831   4.036   2.059   4.809   4.036   0.748   0.000   0.025  800.82  698.60  207.17  491.25    0.00    0.18 -99.000 -99.000 -99.000   0.623   0.077   0.026   0.010   0.005   0.005   0.003   0.404   0.508
 2012 303   151  17.70  30.40  24.00 -99.000   4.378   3.514   1.878   4.362   3.514   0.821   0.000   0.027  805.19  702.96  210.68  492.08    0.00    0.21 -99.000 -99.000 -99.000   0.699   0.075   0.026   0.009   0.005   0.004   0.003   0.351   0.435
 2012 304   152  20.70  30.70  23.80 -99.000   5.123   4.173   2.213   4.026   3.100   0.895   0.000   0.030  810.32  706.99  213.78  492.97    0.00    0.24 -99.000 -99.000 -99.000   0.776   0.073   0.025   0.009   0.005   0.004   0.003   0.310   0.310
 2012 305   153  20.80  29.30  23.40 -99.000   5.070   3.973   2.211   5.048   3.973   1.042   0.000   0.033  815.39  712.04  217.76  494.01    0.00    0.27 -99.000 -99.000 -99.000   0.921   0.074   0.025   0.009   0.005   0.004   0.003   0.397   0.571
 2012 306   154  20.20  29.30  23.90 -99.000   4.930   3.943   2.165   4.667   3.704   0.928   0.000   0.036  820.32  716.71  221.46  494.94    0.00    0.31 -99.000 -99.000 -99.000   0.807   0.076   0.025   0.009   0.005   0.004   0.003   0.370   0.370
 2012 307   155  21.60  33.10  23.20 -99.000   5.456   4.528   2.414   4.254   3.394   0.821   0.000   0.039  825.77  720.96  224.85  495.76    0.00    0.34 -99.000 -99.000 -99.000   0.703   0.073   0.024   0.009   0.005   0.004   0.003   0.339   0.339
 2012 308   156  22.80  33.50  23.60 -99.000   5.780   4.776   2.580   2.178   1.532   0.613   0.000   0.033  831.55  723.14  226.39  496.37    0.00    0.38 -99.000 -99.000 -99.000   0.498   0.071   0.024   0.009   0.005   0.004   0.003   0.153   0.157
 2012 309   157  20.10  31.40  23.30 -99.000   4.971   4.056   2.273   1.949   1.344   0.573   0.000   0.032  836.52  725.09  227.73  496.95    0.00    0.41 -99.000 -99.000 -99.000   0.460   0.070   0.024   0.009   0.004   0.004   0.003   0.134   0.134
 2012 310   158  17.70  29.40  23.60 -99.000   4.291   3.457   2.007   1.766   1.194   0.540   0.000   0.032  840.82  726.85  228.92  497.49    0.00    0.44 -99.000 -99.000 -99.000   0.429   0.068   0.024   0.009   0.004   0.004   0.002   0.119   0.119
 2012 311   159  18.40  30.10  22.90 -99.000   4.467   3.556   2.136   1.621   1.074   0.510   0.000   0.037  845.28  728.47  230.00  498.00    0.00    0.48 -99.000 -99.000 -99.000   0.400   0.067   0.023   0.009   0.004   0.004   0.002   0.107   0.107
 2012 312   160  22.10  31.40  23.10 -99.000   5.441   4.272   2.661   1.498   0.976   0.486   0.000   0.036  850.72  729.97  230.97  498.48    0.00    0.51 -99.000 -99.000 -99.000   0.377   0.066   0.023   0.008   0.004   0.004   0.002   0.098   0.098
 2012 313   161  19.50  30.70  23.30 -99.000   4.768   3.674   2.388   1.445   0.894   0.504   0.000   0.047  855.49  731.42  231.87  498.99    0.00    0.56 -99.000 -99.000 -99.000   0.397   0.065   0.023   0.008   0.004   0.004   0.002   0.089   0.089
 2012 314   162  20.60  30.10  22.90 -99.000   4.989   3.779   2.556   1.452   0.824   0.557   0.000   0.070  860.48  732.87  232.69  499.54    0.00    0.63 -99.000 -99.000 -99.000   0.451   0.064   0.023   0.008   0.004   0.004   0.002   0.082   0.082
 2012 315   163  19.80  31.20  23.70 -99.000   4.878   3.633   2.555   1.458   0.764   0.620   0.000   0.074  865.36  734.33  233.46  500.16    0.00    0.71 -99.000 -99.000 -99.000   0.515   0.063   0.023   0.008   0.004   0.004   0.002   0.076   0.076
 2012 316   164  10.40  28.90  24.00 -99.000   2.506   1.736   1.342   1.531   0.773   0.672   0.000   0.086  867.87  735.86  234.23  500.83    0.00    0.79 -99.000 -99.000 -99.000   0.568   0.063   0.022   0.008   0.004   0.004   0.002   0.077   0.077
 2012 317   165  18.70  32.50  22.50 -99.000   4.627   3.331   2.514   1.508   0.763   0.655   0.000   0.091  872.49  737.37  234.99  501.49    0.00    0.88 -99.000 -99.000 -99.000   0.552   0.062   0.022   0.008   0.004   0.004   0.002   0.076   0.076
 2012 318   166  19.70  32.60  23.40 -99.000   4.899   3.462   2.715   1.289   0.626   0.595   0.000   0.068  877.39  738.65  235.62  502.08    0.00    0.95 -99.000 -99.000 -99.000   0.493   0.061   0.022   0.008   0.004   0.004   0.002   0.063   0.066
 2012 319   167  15.80  30.10  23.20 -99.000   3.813   2.695   2.113   1.166   0.566   0.550   0.000   0.051  881.20  739.82  236.18  502.63    0.00    1.00 -99.000 -99.000 -99.000   0.449   0.061   0.022   0.008   0.004   0.004   0.002   0.057   0.059
 2012 320   168  15.80  32.60  22.20 -99.000   3.886   2.745   2.153   1.063   0.519   0.509   0.000   0.036  885.09  740.88  236.70  503.14    0.00    1.04 -99.000 -99.000 -99.000   0.408   0.060   0.022   0.008   0.004   0.004   0.002   0.052   0.052
