*INFO DETAIL FILE

******************************************************************************

*DSSAT Cropping System Model Ver. 4.8.2.000 -release  APR 22, 2025 15:19:20

*RUN   1        : F1 NE 4                            CRDA1201    1

 EXPERIMENT     : CRDA1201 WH ESSAI VARIETE DAROU PAKA 2012
 DATA PATH      :
 TREATMENT  1   : F1 NE 4
  

 MAKEFW  YEAR DOY =    0   0
 Y4KDOY - Weather file                                                         
 Not able to find 7-digits first weather date                                  
 Set simulation to 5-digits first weather date                                 

 CSM     YEAR DOY = 2012 153
 RNMODE = B                                                                    
 PATHEX =                                                                      
 FILEX  = CRDA1201.WHX                                                         
 FILEB  = DSSBatch.V48                                                         
 FILEIO = DSSAT48.INP                                                          
 MODEL  = RICER048                                                             
 TRTNUM =     1                                                                

 SOILDYN  YEAR DOY = 2012 153
 The soil file has missing or invalid data.                                    
 Default values have been used for these variables:                            
   CEC, ADCOEF, SAEA                                                           
 These defaults may or may not be important to your results.                   

 RETC  YEAR DOY = 2012 153
 Soil RETC parameters:                                                         
  LYR DS  SWCN   WCR    Hb Lambd  Alpha     m     n Texture                    
   1   5  0.43 0.069   1.1 0.210  0.019 0.229 1.297 SandClayLoam               
   2  15  0.43 0.069   1.1 0.210  0.019 0.229 1.297 SandClayLoam               
   3  30  0.43 0.078   1.9 0.206  0.016 0.211 1.267 SandClayLoam               
   4  45  0.43 0.078   1.9 0.206  0.016 0.211 1.267 SandClayLoam               
   5  60  0.43 0.078   1.9 0.206  0.016 0.211 1.267 SandClayLoam               
   6  80  0.43 0.083   1.8 0.198  0.017 0.204 1.256 SandClayLoam               
   7 100  0.43 0.083   1.8 0.198  0.017 0.204 1.256 SandClayLoam               

 SETPM     YEAR DOY = 2012 153
 Simulating flat surface with no plastic mulch.                                                                               

 SOILDYN  YEAR DOY = 2012 153
 Soil ID: CR06002014                                                           
                                                                               
 -99                                                                           
   SALB SWCON    CN  DMOD  SLPF SMPX                                           
   0.13  0.60  76.0  1.00  0.60 IB001                                          
 Soil layer distribution method: 2                                             
      DS DLAYR    LL   DUL   SAT  Root    BD    OC  CLAY  SILT  SAND           
 LYR  cm    cm  frac  frac  frac  Grow g/cm3     %     %     %     %    pH     
   1   5     5 0.150 0.250 0.440 1.000  1.53  1.50  21.6  19.0  59.4   5.4     
   2  15    10 0.150 0.250 0.440 1.000  1.53  1.50  21.6  19.0  59.4   5.4     
   3  30    15 0.170 0.280 0.440 1.000  1.51  1.60  26.1  18.3  55.6   5.3     
   4  45    15 0.170 0.280 0.440 1.000  1.51  1.60  26.1  18.3  55.6   5.3     
   5  60    15 0.170 0.280 0.440 1.000  1.51  1.60  26.1  18.3  55.6   5.3     
   6  80    20 0.180 0.290 0.450 0.300  1.51  2.00  27.1  17.7  55.2   5.4     
   7 100    20 0.180 0.290 0.450 0.300  1.51  2.00  27.1  17.7  55.2   5.4     

 SOILDYN  YEAR DOY = 2012 153
 Additional soil properties                                                    
                Convert                                                        
    Cation Adsrp  ppm /  KSAT  SLCF  TOTN  OrgN                                
   L  Exch  Coef  kg/ha  cm/h     %     % kg/ha                                
   1  15.5   0.0   1.31   0.4   0.1  0.09   688                                
   2  15.5   0.0   0.65   0.4   0.1  0.09  1377                                
   3  15.5   0.0   0.44   0.4   0.1  0.05  1132                                
   4  15.5   0.0   0.44   0.4   0.1  0.05  1132                                
   5  15.5   0.0   0.44   0.4   0.1  0.05  1132                                
   6  15.5   0.0   0.33   0.4   0.1  0.04  1208                                
   7  15.5   0.0   0.33   0.4   0.1  0.04  1208                                

 IPWTH   YEAR DOY = 2012 153
 DARO1201.WTH                                                                  
 Found daily weather data headers for:                                         
   SRAD           Col   7 -  11                                                
   TMAX           Col  13 -  17                                                
   TMIN           Col  19 -  23                                                
   RAIN           Col  25 -  29                                                
   DEWP           Col  31 -  35                                                
   WIND           Col  37 -  41                                                
   PAR            Col  43 -  47                                                
   RHUM           Col  55 -  59                                                

 CO2VAL  YEAR DOY = 2012 153
  784 CO2 data points read from file.                                          
 C:\DSSAT48\StandardData\CO2048.WDA                                            

 SOMINI  YEAR DOY = 2012 153
 Initial SOM fractions (fraction of total soil organic matter):                
                      SAND   TOC  FOMC  SOMC  SOM1  SOM2  SOM3                 
  Lyr Dep Texture       %     %     %     %   frac  frac  frac Method          
   1   5 SandClayLoam 59.4 1.500 0.002 1.498 0.027 0.520 0.452 Regression eqn  
   2  15 SandClayLoam 59.4 1.500 0.001 1.499 0.027 0.520 0.452 Regression eqn  
   3  30 SandClayLoam 55.6 1.600 0.001 1.599 0.027 0.513 0.460 Regression eqn  
   4  45 SandClayLoam 55.6 1.600 0.001 1.599 0.027 0.513 0.460 Regression eqn  
   5  60 SandClayLoam 55.6 1.600 0.000 1.600 0.027 0.513 0.459 Regression eqn  
   6  80 SandClayLoam 55.2 2.000 0.000 2.000 0.031 0.598 0.371 Regression eqn  
   7 100 SandClayLoam 55.2 2.000 0.000 2.000 0.031 0.598 0.371 Regression eqn  

 SENLIG  YEAR DOY = 2012 153
 Default values used for plant lignin fractions.                               

 TILEVENT  YEAR DOY = 2012 184
              -- Lyr Thick (cm)--  --Blk dens (g/cm3)- ---- SOM-BD --------    
                DL1    DL2    DL3    BD1    BD2    BD3   BDS1   BDS2   BDS3    
 Before till  5.000 10.000 15.000  1.530  1.530  1.510  1.530  1.530  1.510    
 After till   5.556 10.556 15.000  1.377  1.449  1.510                         

 ENDRUN  YEAR DOY = 2012 320
 Normal end of run        1                                                    
