*MANAGEMENT OPERATIONS EVENT SUMMARY

*DSSAT Cropping System Model Ver. 4.8.2.000 -release  APR 22, 2025 15:19:20
!---------------------------------------------------------------------------------------------
@RUN Date........  DOY    DAS    DAP  CR  Stage         Operation       Quantities
!---------------------------------------------------------------------------------------------
   1 JUN  1, 2012  153      1      0  RI  14 Start Sim 
   1 JUL  2, 2012  184     32      0  RI                Tillage           10.0 cm
   1 JUL 13, 2012  195     43      0  RI                Planting       
   1 JUL 13, 2012  195     43      0  RI  07 Sowing    
   1 JUL 15, 2012  197     45      2  RI  08 Germinate 
   1 JUL 18, 2012  200     48      5  RI  09 Emergence 
   1 JUL 20, 2012  202     50      7  RI                Fertilizer      
   1 AUG  9, 2012  222     70     27  RI                Fertilizer      
   1 AUG 17, 2012  230     78     35  RI  01 End Juveni
   1 SEP  4, 2012  248     96     53  RI  02 Pan Init  
   1 SEP  8, 2012  252    100     57  RI                Fertilizer      
   1 SEP 29, 2012  273    121     78  RI  03 Heading   
   1 OCT  6, 2012  280    128     85  RI  04 Beg Gr Fil
   1 NOV 12, 2012  317    165    122  RI  05 End Mn Fil
   1 NOV 13, 2012  318    166    123  RI  12 End Ti Fil
   1 NOV 14, 2012  319    167    124  RI  20 Harvest   
                                             100.0 % yield harvested     3342. kg/ha
                                               0.0 % by-product harv        0. kg/ha
 
