*MANAGEMENT OPERATIONS DAILY OUTPUT FILE

*DSSAT Cropping System Model Ver. 4.8.2.000 -release  APR 22, 2025 15:19:20

*RUN   1        : F1 NE 4                   RICER048 CRDA1201    1
 MODEL          : RICER048 - Rice
 EXPERIMENT     : CRDA1201 WH ESSAI VARIETE DAROU PAKA 2012
 DATA PATH      :
 TREATMENT  1   : F1 NE 4                   RICER048
  

@YEAR DOY   DAS   DAP  TL#C  TLDD DLYR3   TLBD  R#AC RESNC RESPC
 2012 153     1     0     0     0    30  1.520     0     0     0
 2012 154     2     0     0     0    30  1.520     0     0     0
 2012 155     3     0     0     0    30  1.520     0     0     0
 2012 156     4     0     0     0    30  1.520     0     0     0
 2012 157     5     0     0     0    30  1.520     0     0     0
 2012 158     6     0     0     0    30  1.520     0     0     0
 2012 159     7     0     0     0    30  1.520     0     0     0
 2012 160     8     0     0     0    30  1.520     0     0     0
 2012 161     9     0     0     0    30  1.520     0     0     0
 2012 162    10     0     0     0    30  1.520     0     0     0
 2012 163    11     0     0     0    30  1.520     0     0     0
 2012 164    12     0     0     0    30  1.520     0     0     0
 2012 165    13     0     0     0    30  1.520     0     0     0
 2012 166    14     0     0     0    30  1.520     0     0     0
 2012 167    15     0     0     0    30  1.520     0     0     0
 2012 168    16     0     0     0    30  1.520     0     0     0
 2012 169    17     0     0     0    30  1.520     0     0     0
 2012 170    18     0     0     0    30  1.520     0     0     0
 2012 171    19     0     0     0    30  1.520     0     0     0
 2012 172    20     0     0     0    30  1.520     0     0     0
 2012 173    21     0     0     0    30  1.520     0     0     0
 2012 174    22     0     0     0    30  1.520     0     0     0
 2012 175    23     0     0     0    30  1.520     0     0     0
 2012 176    24     0     0     0    30  1.520     0     0     0
 2012 177    25     0     0     0    30  1.520     0     0     0
 2012 178    26     0     0     0    30  1.520     0     0     0
 2012 179    27     0     0     0    30  1.520     0     0     0
 2012 180    28     0     0     0    30  1.520     0     0     0
 2012 181    29     0     0     0    30  1.520     0     0     0
 2012 182    30     0     0     0    30  1.520     0     0     0
 2012 183    31     0     0     0    30  1.520     0     0     0
 2012 184    32     0     1    10    30  1.497     0     0     0
 2012 185    33     0     1     0    30  1.505     0     0     0
 2012 186    34     0     1     0    30  1.507     0     0     0
 2012 187    35     0     1     0    30  1.510     0     0     0
 2012 188    36     0     1     0    30  1.511     0     0     0
 2012 189    37     0     1     0    30  1.512     0     0     0
 2012 190    38     0     1     0    30  1.514     0     0     0
 2012 191    39     0     1     0    30  1.520     0     0     0
 2012 192    40     0     1     0    30  1.520     0     0     0
 2012 193    41     0     1     0    30  1.520     0     0     0
 2012 194    42     0     1     0    30  1.520     0     0     0
 2012 195    43     0     1     0    30  1.520     0     0     0
 2012 196    44     1     1     0    30  1.520     0     0     0
 2012 197    45     2     1     0    30  1.520     0     0     0
 2012 198    46     3     1     0    30  1.520     0     0     0
 2012 199    47     4     1     0    30  1.520     0     0     0
 2012 200    48     5     1     0    30  1.520     0     0     0
 2012 201    49     6     1     0    30  1.520     0     0     0
 2012 202    50     7     1     0    30  1.520     0     0     0
 2012 203    51     8     1     0    30  1.520     0     0     0
 2012 204    52     9     1     0    30  1.520     0     0     0
 2012 205    53    10     1     0    30  1.520     0     0     0
 2012 206    54    11     1     0    30  1.520     0     0     0
 2012 207    55    12     1     0    30  1.520     0     0     0
 2012 208    56    13     1     0    30  1.520     0     0     0
 2012 209    57    14     1     0    30  1.520     0     0     0
 2012 210    58    15     1     0    30  1.520     0     0     0
 2012 211    59    16     1     0    30  1.520     0     0     0
 2012 212    60    17     1     0    30  1.520     0     0     0
 2012 213    61    18     1     0    30  1.520     0     0     0
 2012 214    62    19     1     0    30  1.520     0     0     0
 2012 215    63    20     1     0    30  1.520     0     0     0
 2012 216    64    21     1     0    30  1.520     0     0     0
 2012 217    65    22     1     0    30  1.520     0     0     0
 2012 218    66    23     1     0    30  1.520     0     0     0
 2012 219    67    24     1     0    30  1.520     0     0     0
 2012 220    68    25     1     0    30  1.520     0     0     0
 2012 221    69    26     1     0    30  1.520     0     0     0
 2012 222    70    27     1     0    30  1.520     0     0     0
 2012 223    71    28     1     0    30  1.520     0     0     0
 2012 224    72    29     1     0    30  1.520     0     0     0
 2012 225    73    30     1     0    30  1.520     0     0     0
 2012 226    74    31     1     0    30  1.520     0     0     0
 2012 227    75    32     1     0    30  1.520     0     0     0
 2012 228    76    33     1     0    30  1.520     0     0     0
 2012 229    77    34     1     0    30  1.520     0     0     0
 2012 230    78    35     1     0    30  1.520     0     0     0
 2012 231    79    36     1     0    30  1.520     0     0     0
 2012 232    80    37     1     0    30  1.520     0     0     0
 2012 233    81    38     1     0    30  1.520     0     0     0
 2012 234    82    39     1     0    30  1.520     0     0     0
 2012 235    83    40     1     0    30  1.520     0     0     0
 2012 236    84    41     1     0    30  1.520     0     0     0
 2012 237    85    42     1     0    30  1.520     0     0     0
 2012 238    86    43     1     0    30  1.520     0     0     0
 2012 239    87    44     1     0    30  1.520     0     0     0
 2012 240    88    45     1     0    30  1.520     0     0     0
 2012 241    89    46     1     0    30  1.520     0     0     0
 2012 242    90    47     1     0    30  1.520     0     0     0
 2012 243    91    48     1     0    30  1.520     0     0     0
 2012 244    92    49     1     0    30  1.520     0     0     0
 2012 245    93    50     1     0    30  1.520     0     0     0
 2012 246    94    51     1     0    30  1.520     0     0     0
 2012 247    95    52     1     0    30  1.520     0     0     0
 2012 248    96    53     1     0    30  1.520     0     0     0
 2012 249    97    54     1     0    30  1.520     0     0     0
 2012 250    98    55     1     0    30  1.520     0     0     0
 2012 251    99    56     1     0    30  1.520     0     0     0
 2012 252   100    57     1     0    30  1.520     0     0     0
 2012 253   101    58     1     0    30  1.520     0     0     0
 2012 254   102    59     1     0    30  1.520     0     0     0
 2012 255   103    60     1     0    30  1.520     0     0     0
 2012 256   104    61     1     0    30  1.520     0     0     0
 2012 257   105    62     1     0    30  1.520     0     0     0
 2012 258   106    63     1     0    30  1.520     0     0     0
 2012 259   107    64     1     0    30  1.520     0     0     0
 2012 260   108    65     1     0    30  1.520     0     0     0
 2012 261   109    66     1     0    30  1.520     0     0     0
 2012 262   110    67     1     0    30  1.520     0     0     0
 2012 263   111    68     1     0    30  1.520     0     0     0
 2012 264   112    69     1     0    30  1.520     0     0     0
 2012 265   113    70     1     0    30  1.520     0     0     0
 2012 266   114    71     1     0    30  1.520     0     0     0
 2012 267   115    72     1     0    30  1.520     0     0     0
 2012 268   116    73     1     0    30  1.520     0     0     0
 2012 269   117    74     1     0    30  1.520     0     0     0
 2012 270   118    75     1     0    30  1.520     0     0     0
 2012 271   119    76     1     0    30  1.520     0     0     0
 2012 272   120    77     1     0    30  1.520     0     0     0
 2012 273   121    78     1     0    30  1.520     0     0     0
 2012 274   122    79     1     0    30  1.520     0     0     0
 2012 275   123    80     1     0    30  1.520     0     0     0
 2012 276   124    81     1     0    30  1.520     0     0     0
 2012 277   125    82     1     0    30  1.520     0     0     0
 2012 278   126    83     1     0    30  1.520     0     0     0
 2012 279   127    84     1     0    30  1.520     0     0     0
 2012 280   128    85     1     0    30  1.520     0     0     0
 2012 281   129    86     1     0    30  1.520     0     0     0
 2012 282   130    87     1     0    30  1.520     0     0     0
 2012 283   131    88     1     0    30  1.520     0     0     0
 2012 284   132    89     1     0    30  1.520     0     0     0
 2012 285   133    90     1     0    30  1.520     0     0     0
 2012 286   134    91     1     0    30  1.520     0     0     0
 2012 287   135    92     1     0    30  1.520     0     0     0
 2012 288   136    93     1     0    30  1.520     0     0     0
 2012 289   137    94     1     0    30  1.520     0     0     0
 2012 290   138    95     1     0    30  1.520     0     0     0
 2012 291   139    96     1     0    30  1.520     0     0     0
 2012 292   140    97     1     0    30  1.520     0     0     0
 2012 293   141    98     1     0    30  1.520     0     0     0
 2012 294   142    99     1     0    30  1.520     0     0     0
 2012 295   143   100     1     0    30  1.520     0     0     0
 2012 296   144   101     1     0    30  1.520     0     0     0
 2012 297   145   102     1     0    30  1.520     0     0     0
 2012 298   146   103     1     0    30  1.520     0     0     0
 2012 299   147   104     1     0    30  1.520     0     0     0
 2012 300   148   105     1     0    30  1.520     0     0     0
 2012 301   149   106     1     0    30  1.520     0     0     0
 2012 302   150   107     1     0    30  1.520     0     0     0
 2012 303   151   108     1     0    30  1.520     0     0     0
 2012 304   152   109     1     0    30  1.520     0     0     0
 2012 305   153   110     1     0    30  1.520     0     0     0
 2012 306   154   111     1     0    30  1.520     0     0     0
 2012 307   155   112     1     0    30  1.520     0     0     0
 2012 308   156   113     1     0    30  1.520     0     0     0
 2012 309   157   114     1     0    30  1.520     0     0     0
 2012 310   158   115     1     0    30  1.520     0     0     0
 2012 311   159   116     1     0    30  1.520     0     0     0
 2012 312   160   117     1     0    30  1.520     0     0     0
 2012 313   161   118     1     0    30  1.520     0     0     0
 2012 314   162   119     1     0    30  1.520     0     0     0
 2012 315   163   120     1     0    30  1.520     0     0     0
 2012 316   164   121     1     0    30  1.520     0     0     0
 2012 317   165   122     1     0    30  1.520     0     0     0
 2012 318   166   123     1     0    30  1.520     0     0     0
 2012 319   167   124     1     0    30  1.520     0     0     0
 2012 320   168   125     1     0    30  1.520     0     0     0
