*SIMULATION OVERVIEW FILE

*DSSAT Cropping System Model Ver. 4.8.2.000 -release  APR 22, 2025 15:19:20

*RUN   1        : F1 NE 4                   RICER048 CRDA1201    1
 MODEL          : RICER048 - Rice
 EXPERIMENT     : CRDA1201 WH ESSAI VARIETE DAROU PAKA 2012
 DATA PATH      :
 TREATMENT  1   : F1 NE 4                   RICER048


 CROP           : Rice             CULTIVAR : NERICA 4         ECOTYPE :IB0001
 STARTING DATE  : JUN  1 2012
 PLANTING DATE  : JUL 13 2012      PLANTS/m2 :    60.0    ROW SPACING :  25.cm
 WEATHER        : DARO   2012
 SOIL           : CR06002014     TEXTURE : S     -
 SOIL INIT COND : DEPTH:100cm EXTR. H2O:108.5mm  NO3:  0.0kg/ha  NH4:  0.0kg/ha
 WATER BALANCE  : RAINFED
 IRRIGATION     : NOT IRRIGATED
 NITROGEN BAL.  : NOT SIMULATED ; NO N-STRESS
 N-FERTILIZER   :
 RESIDUE/MANURE :
 ENVIRONM. OPT. : DAYL=    0.00  SRAD=    0.00  TMAX=    0.00  TMIN=    0.00
                  RAIN=    0.00  CO2 =    0.00  DEW =    0.00  WIND=    0.00
 SIMULATION OPT : WATER   :Y  NITROGEN:N  N-FIX:N  PHOSPH :N  PESTS  :N
                  PHOTO   :C  ET      :R  INFIL:S  HYDROL :R  SOM    :P
                  CO2 394ppm  NSWIT   :1  EVAP :S  SOIL   :2  STEMP  :D
 MANAGEMENT OPT : PLANTING:R  IRRIG   :N  FERT :R  RESIDUE:N  HARVEST:A
                  WEATHER :M  TILLAGE :Y

*SUMMARY OF SOIL AND GENETIC INPUT PARAMETERS

   SOIL LOWER UPPER   SAT  EXTR  INIT   ROOT   BULK     pH    NO3    NH4    ORG
  DEPTH LIMIT LIMIT    SW    SW    SW   DIST   DENS                          C
   cm   cm3/cm3    cm3/cm3    cm3/cm3         g/cm3         ugN/g  ugN/g     %
-------------------------------------------------------------------------------
  0-  5 0.150 0.250 0.440 0.100 0.250   1.00   1.53   5.40   0.00   0.00   1.50
  5- 15 0.150 0.250 0.440 0.100 0.250   1.00   1.53   5.40   0.00   0.00   1.50
 15- 30 0.170 0.280 0.440 0.110 0.280   1.00   1.51   5.30   0.00   0.00   1.60
 30- 45 0.170 0.280 0.440 0.110 0.280   1.00   1.51   5.30   0.00   0.00   1.60
 45- 60 0.170 0.280 0.440 0.110 0.280   1.00   1.51   5.30   0.00   0.00   1.60
 60- 80 0.180 0.290 0.450 0.110 0.290   0.30   1.51   5.40   0.00   0.00   2.00
 80-100 0.180 0.290 0.450 0.110 0.290   0.30   1.51   5.40   0.00   0.00   2.00

TOT-100  17.1  27.9  44.4  10.8  27.9  <--cm   -  kg/ha-->    0.0    0.0      0
SOIL ALBEDO    : 0.13      EVAPORATION LIMIT : 6.00         MIN. FACTOR  : 1.00
RUNOFF CURVE # :76.00      DRAINAGE RATE     : 0.60         FERT. FACTOR : 0.60

 Rice             CULTIVAR: AR0002-NERICA 4           ECOTYPE: IB0001
 P1     : 540.0  P2R    : 123.0  P5     : 710.0  P2O    :  11.4
 G1     :  65.0  G2     :0.0240  G3     :  0.82  THOT   :  35.0  TCLDP  :  15.0  TCLDF  :  15.0


*SIMULATED CROP AND SOIL STATUS AT MAIN DEVELOPMENT STAGES

 RUN NO.     1     F1 NE 4                 

        CROP GROWTH     BIOMASS         LEAF   CROP N     STRESS      STRESS                                           
   DATE  AGE STAGE        kg/ha    LAI   NUM  kg/ha  %   H2O  Nitr Phos1 Phos2  RSTG                                   
 ------  --- ----------   -----  -----  ----  ---  ---  ----  ----  ----  ----  ----                                   
  1 JUN    0 Start Sim        0   0.00   0.0    0  0.0  0.00  0.00  0.00  0.00     7
 13 JUL    0 Sowing           0   0.00   0.0    0  0.0  0.00  0.00  0.00  0.00     8
 15 JUL    2 Germinate        0   0.00   0.0    0  0.0  0.00  0.00  0.00  0.00     9
 18 JUL    5 Emergence        3   0.01   1.0    0  0.0  0.00  0.00  0.00  0.00     1
 17 AUG   35 End Juveni     251   0.38  11.0    0  0.0  0.00  0.00  0.00  0.00     2
  4 SEP   53 Pan Init      1440   1.46  15.0    0  0.0  0.00  0.00  0.00  0.00     3
 29 SEP   78 Heading       4545   3.05  19.0    0  0.0  0.00  0.00  0.00  0.00     4
  6 OCT   85 Beg Gr Fil    5512   2.71  19.0    0  0.0  0.00  0.00  0.00  0.00     5
 12 NOV  122 End Mn Fil    8643   1.24  19.0    0  0.0  0.27  0.00  0.00  0.00     5
 13 NOV  123 End Ti Fil    8643   1.24  19.0    0  0.0  0.87  0.00  0.00  0.00     6
 14 NOV  124 Maturity      8643   1.24  19.0    0  0.0  0.85  0.00  0.00  0.00    20
 14 NOV  124 Harvest       8643   1.24  19.0    0  0.0  0.00  0.00  0.00  0.00    20

     Conditions not met during defined window for harvesting                       
     between DAY 2012 319 and DAY 2001   1                                         



*MAIN GROWTH AND DEVELOPMENT VARIABLES

@     VARIABLE                                         SIMULATED     MEASURED
      --------                                         ---------     --------
      Panicle Initiation day (dap)                            53          -99
      Anthesis day (dap)                                      78          -99
      Physiological maturity day (dap)                       124          -99
      Yield at harvest maturity (kg [dm]/ha)                3342          -99
      Unit wt at maturity (g [dm]/unit)                   0.0240          -99
      Number at maturity (no/m2)                           13923          -99
      Pod or panicle number (no/m2)                       661.71          -99
      Leaf area index, maximum                              3.10          -99
      Tops weight at anthesis (kg [dm]/ha)                  4402          -99
      Tops N at anthesis (kg/ha)                               0          -99
      Tops weight at maturity (kg [dm]/ha)                  8643          -99
      By-product produced (stalk) at maturity (kg[dm]/ha    5302          -99
      Harvest index at maturity                            0.387          -99
      Leaf number per stem at maturity                        19          -99
      Grain N at maturity (kg/ha)                              0          -99
      Tops N at maturity (kg/ha)                               0          -99
      Stem N at maturity (kg/ha)                               0          -99
      Grain N at maturity (%)                               0.00          -99
      Emergence day (dap)                                      5          -99


*ENVIRONMENTAL AND STRESS FACTORS

 |-----Development Phase------|--------------------------------------Environment--------------------------------------|-----------------Stress-----------------|
                              |---------------Average--------------|-----Cumulative-----|--------Count of days--------|          (0=Min, 1=Max Stress)         |
                         Time  Temp  Temp  Temp Solar Photop                Evapo    Pot TMIN TMIN TMAX TMAX TMAX RAIN|----Water----|---Nitrogen--|-Phosphorus-|
                         Span   Max   Min  Mean   Rad  [day]    CO2   Rain  Trans     ET   <    <    >    >    >    >   Photo         Photo         Photo
                         days     C     C     C MJ/m2     hr    ppm     mm     mm    mm   0 C  2 C 30 C 32 C 34 C  0mm  synth Growth  synth Growth  synth Growth
----------------------------------------------------------------------------------------------------------------------------------------------------------------
 Emergence-End Juvenile    30  29.7  23.7  26.7  18.3  12.00  394.1  317.6  155.0  155.1    0    0   12    0    0   30  0.000  0.000  0.000  0.000  0.000  0.000
 End Juvenil-Panicl Init   18  29.1  23.7  26.4  17.8  12.00  394.3  211.4   84.8   85.2    0    0    4    0    0   18  0.000  0.000  0.000  0.000  0.000  0.000
 Panicl Init-End Lf Grow   25  29.6  23.6  26.6  18.0  12.00  394.4  283.9  111.0  111.7    0    0    8    0    0   25  0.000  0.000  0.000  0.000  0.000  0.000
 End Lf Grth-Beg Grn Fil    7  30.2  23.5  26.9  20.2  12.00  394.5   41.4   34.6   34.8    0    0    3    1    0    7  0.000  0.000  0.000  0.000  0.000  0.000
 Grain Filling Phase       38  30.7  23.6  27.1  19.4  12.00  394.7   51.0  149.2  182.7    0    0   23    7    0   36  0.202  0.259  0.000  0.000  0.000  0.000
   
 Planting to Harvest      124  29.9  23.6  26.8  18.6  12.00  394.4  955.6  560.2  598.6    0    0   54    9    0  121  0.069  0.086  0.000  0.000  0.000  0.000
----------------------------------------------------------------------------------------------------------------------------------------------------------------


*Resource Productivity
 Growing season length: 124 days 

 Precipitation during growing season       955.6 mm[rain]
   Dry Matter Productivity                  0.90 kg[DM]/m3[rain]          =    9.0 kg[DM]/ha per mm[rain]
   Yield Productivity                       0.35 kg[grain yield]/m3[rain] =    3.5 kg[yield]/ha per mm[rain]

 Evapotranspiration during growing season  560.2 mm[ET]
   Dry Matter Productivity                  1.54 kg[DM]/m3[ET]            =   15.4 kg[DM]/ha per mm[ET]
   Yield Productivity                       0.60 kg[grain yield]/m3[ET]   =    6.0 kg[yield]/ha per mm[ET]

 Transpiration during growing season       236.7 mm[EP]
   Dry Matter Productivity                  3.65 kg[DM]/m3[EP]            =   36.5 kg[DM]/ha per mm[EP]
   Yield Productivity                       1.41 kg[grain yield]/m3[EP]   =   14.1 kg[yield]/ha per mm[EP]

--------------------------------------------------------------------------------------------------------------

                      Rice YIELD :     3342 kg/ha    [Dry weight] 

**************************************************************************************************************
