*GROWTH ASPECTS OUTPUT FILE

*DSSAT Cropping System Model Ver. 4.8.2.000 -release  APR 22, 2025 15:19:20

*RUN   1        : F1 NE 4                   RICER048 CRDA1201    1
 MODEL          : RICER048 - Rice
 EXPERIMENT     : CRDA1201 WH ESSAI VARIETE DAROU PAKA 2012
 DATA PATH      :
 TREATMENT  1   : F1 NE 4                   RICER048
  
!YR        Days  Days              Leaf  <--------- Dry Weight -----------> Grain Kernl              <------ Stress (0-1) ------>   Leaf  Shell  Spec  <-Canopy->  Root  <-- Root Length Density ---><Senesced Mat>   Phot  
!  and    after after  Leaf  Grow  Area  <------------ kg/Ha ------------->   per  wght  Harv Tillr  <--- Water ---->                Nit   -ing  Leaf  Hght Brdth Depth  <---- cm3/cm3 of soil -----> <--(kg/ha)-->  Therm  
!     DOY start plant   Num Stage Index  Leaf  Stem Grain  Root Panic  Crop    m2    mg  Indx   No.  Phot  Grow  Excs  Nitr Potas     %      %   Area    m     m     m    0-5  5-15 15-30 30-4545-100   Surf   Soil   Days  
@YEAR DOY   DAS   DAP  L#SD  GSTD  LAID  LWAD  SWAD  GWAD  RWAD  EWAD  CWAD  G#AD  GWGD  HIAD  T#AD  WSPD  WSGD  EWSD  NSTD  KSTD   LN%D   SH%D  SLAD  CHTD  CWID  RDPD  RL1D  RL2D  RL3D  RL4D  RL5D  SNW0C  SNW1C   DTTC  
 2012 195    43     0   0.0     0  0.00     1     1     0     1     0     1     0   0.0 0.000    60 0.000 0.000 0.000 0.000 0.000   0.00   0.00   0.0  0.00  0.00  0.02  0.00  0.00  0.00  0.00  0.00      0      0     18
 2012 196    44     1   0.0     0  0.00     1     1     0     1     0     1     0   0.0 0.000    60 0.000 0.000 0.000 0.000 0.000   0.00   0.00   0.0  0.00  0.00  0.02  0.00  0.00  0.00  0.00  0.00      0      0     36
 2012 197    45     2   0.0     0  0.00     1     1     0     1     0     1     0   0.0 0.000    60 0.000 0.000 0.000 0.000 0.000   0.00   0.00   0.0  0.00  0.00  0.02  0.00  0.00  0.00  0.00  0.00      0      0     53
 2012 198    46     3   0.0     0  0.00     1     1     0     1     0     1     0   0.0 0.000    60 0.000 0.000 0.000 0.000 0.000   0.00   0.00   0.0  0.00  0.00  0.05  0.00  0.00  0.00  0.00  0.00      0      0     71
 2012 199    47     4   0.0     0  0.00     1     1     0     1     0     1     0   0.0 0.000    60 0.000 0.000 0.000 0.000 0.000   0.00   0.00   0.0  0.00  0.00  0.07  0.00  0.00  0.00  0.00  0.00      0      0     89
 2012 200    48     5   1.0     1  0.01     2     1     0     1     0     3     0   0.0 0.000    60 0.000 0.000 0.000 0.000 0.000   0.00   0.00 270.7  0.00  0.00  0.10  1.01  0.50  0.00  0.00  0.00      0      0    107
 2012 201    49     6   1.0     1  0.01     4     1     0     1     0     4     0   0.0 0.000    60 0.000 0.000 0.000 0.000 0.000   0.00   0.00 233.3  0.00  0.00  0.10  1.01  0.50  0.00  0.00  0.00      0      0    125
 2012 202    50     7   2.0     1  0.01     5     1     0     1     0     6     0   0.0 0.000    60 0.000 0.000 0.000 0.000 0.000   0.00   0.00 217.1  0.00  0.00  0.13  1.01  0.50  0.00  0.00  0.00      0      0    143
 2012 203    51     8   2.0     1  0.02     7     1     0     2     0     8     0   0.0 0.000    60 0.000 0.000 0.000 0.000 0.000   0.00   0.00 208.2  0.00  0.00  0.17  1.01  0.50  0.00  0.00  0.00      0      0    160
 2012 204    52     9   3.0     1  0.02     9     1     0     3     0    10     0   0.0 0.000    60 0.000 0.000 0.000 0.000 0.000   0.00   0.00 202.2  0.00  0.00  0.20  1.00  0.50  0.00  0.00  0.00      0      0    178
 2012 205    53    10   3.0     1  0.02    12     1     0     4     0    12     0   0.0 0.000    60 0.000 0.000 0.000 0.000 0.000   0.00   0.00 198.0  0.00  0.00  0.23  1.00  0.50  0.00  0.00  0.00      0      0    196
 2012 206    54    11   4.0     1  0.03    14     1     0     5     0    15     0   0.0 0.000    60 0.000 0.000 0.000 0.000 0.000   0.00   0.00 195.0  0.00  0.00  0.26  1.00  0.50  0.01  0.00  0.00      0      0    214
 2012 207    55    12   4.0     1  0.03    17     1     0     6     0    18     0   0.0 0.000    60 0.000 0.000 0.000 0.000 0.000   0.00   0.00 192.8  0.00  0.00  0.29  1.00  0.50  0.01  0.00  0.00      0      0    232
 2012 208    56    13   5.0     1  0.04    21     1     0     8     0    21     0   0.0 0.000    60 0.000 0.000 0.000 0.000 0.000   0.00   0.00 191.0  0.00  0.00  0.33  1.00  0.51  0.02  0.00  0.00      0      0    250
 2012 209    57    14   5.0     1  0.04    24     1     0    11     0    24     0   0.0 0.000    60 0.000 0.000 0.000 0.000 0.000   0.00   0.00 189.9  0.00  0.00  0.36  1.00  0.51  0.02  0.00  0.00      0      0    268
 2012 210    58    15   5.0     1  0.05    27     1     0    13     0    27     0   0.0 0.000    60 0.000 0.000 0.000 0.000 0.000   0.00   0.00 188.9  0.00  0.00  0.39  1.00  0.52  0.03  0.01  0.00      0      0    286
 2012 211    59    16   6.0     1  0.06    30     1     0    17     0    31     0   0.0 0.000    60 0.000 0.000 0.000 0.000 0.000   0.00   0.00 188.1  0.00  0.00  0.42  1.00  0.52  0.03  0.01  0.00      0      0    304
 2012 212    60    17   6.0     1  0.07    34     1     0    19     0    35     0   0.0 0.000    60 0.000 0.000 0.000 0.000 0.000   0.00   0.00 196.2  0.00  0.00  0.46  1.01  0.53  0.04  0.02  0.00      0      0    322
 2012 213    61    18   6.0     1  0.07    38     1     0    21     0    39     0   0.0 0.000    60 0.000 0.000 0.000 0.000 0.000   0.00   0.00 194.7  0.00  0.00  0.49  1.01  0.53  0.05  0.03  0.00      0      0    340
 2012 214    62    19   6.0     1  0.08    43     1     0    23     0    43     0   0.0 0.000    60 0.000 0.000 0.000 0.000 0.000   0.00   0.00 193.3  0.00  0.00  0.52  1.01  0.53  0.05  0.03  0.00      0      0    358
 2012 215    63    20   7.0     1  0.09    47     1     0    26     0    48     0   0.0 0.000   116 0.000 0.000 0.000 0.000 0.000   0.00   0.00 192.2  0.00  0.00  0.55  1.01  0.53  0.06  0.04  0.01      0      0    375
 2012 216    64    21   7.0     1  0.10    53     1     0    29     0    54     0   0.0 0.000   117 0.000 0.000 0.000 0.000 0.000   0.00   0.00 191.0  0.00  0.00  0.58  1.01  0.53  0.06  0.04  0.01      0      0    393
 2012 217    65    22   7.0     1  0.11    59     1     0    33     0    60     0   0.0 0.000   119 0.000 0.000 0.000 0.000 0.000   0.00   0.00 190.1  0.00  0.00  0.62  1.01  0.54  0.07  0.05  0.02      0      0    411
 2012 218    66    23   8.0     1  0.13    67     1     0    37     0    67     0   0.0 0.000   121 0.000 0.000 0.000 0.000 0.000   0.00   0.00 189.2  0.00  0.00  0.65  1.01  0.54  0.07  0.05  0.02      0      0    429
 2012 219    67    24   8.0     1  0.14    75     1     0    41     0    75     0   0.0 0.000   124 0.000 0.000 0.000 0.000 0.000   0.00   0.00 188.4  0.00  0.00  0.68  1.01  0.55  0.08  0.06  0.03      0      0    446
 2012 220    68    25   8.0     1  0.16    84     1     0    46     0    85     0   0.0 0.000   128 0.000 0.000 0.000 0.000 0.000   0.00   0.00 185.9  0.00  0.00  0.71  1.02  0.55  0.09  0.07  0.04      0      0    464
 2012 221    69    26   9.0     1  0.17    94     1     0    52     0    95     0   0.0 0.000   135 0.000 0.000 0.000 0.000 0.000   0.00   0.00 183.9  0.00  0.00  0.74  1.02  0.56  0.10  0.08  0.05      0      0    482
 2012 222    70    27   9.0     1  0.19   102     1     0    56     0   103     0   0.0 0.000   142 0.000 0.000 0.000 0.000 0.000   0.00   0.00 183.7  0.00  0.00  0.78  1.02  0.56  0.11  0.09  0.06      0      0    500
 2012 223    71    28   9.0     1  0.21   114     1     0    63     0   115     0   0.0 0.000   153 0.000 0.000 0.000 0.000 0.000   0.00   0.00 181.9  0.00  0.00  0.81  1.03  0.57  0.11  0.09  0.07      0      0    518
 2012 224    72    29  10.0     1  0.23   126     1     0    69     0   127     0   0.0 0.000   167 0.000 0.000 0.000 0.000 0.000   0.00   0.00 180.5  0.00  0.00  0.84  1.03  0.58  0.12  0.10  0.08      0      0    536
 2012 225    73    30  10.0     1  0.25   140     1     0    77     0   140     0   0.0 0.000   184 0.000 0.000 0.000 0.000 0.000   0.00   0.00 179.1  0.00  0.00  0.87  1.04  0.59  0.13  0.11  0.09      0      0    554
 2012 226    74    31  10.0     1  0.27   153     1     0    84     0   154     0   0.0 0.000   204 0.000 0.000 0.000 0.000 0.000   0.00   0.00 178.0  0.00  0.00  0.91  1.05  0.60  0.15  0.13  0.10      0      0    572
 2012 227    75    32  10.0     1  0.29   165     1     0    91     0   166     0   0.0 0.000   220 0.000 0.000 0.000 0.000 0.000   0.00   0.00 177.2  0.00  0.00  0.94  1.05  0.60  0.16  0.14  0.11      0      0    588
 2012 228    76    33  11.0     1  0.32   182     1     0   100     0   183     0   0.0 0.000   246 0.000 0.000 0.000 0.000 0.000   0.00   0.00 176.2  0.00  0.00  0.97  1.06  0.61  0.17  0.15  0.12      0      0    606
 2012 229    77    34  11.0     1  0.35   200     1     0   110     0   201     0   0.0 0.000   274 0.000 0.000 0.000 0.000 0.000   0.00   0.00 175.4  0.00  0.00  1.00  1.07  0.62  0.18  0.16  0.13      0      0    623
 2012 230    78    35  11.0     2  0.38   220    31     0   118     0   251     0   0.0 0.000   306 0.000 0.000 0.000 0.000 0.000   0.00   0.00 174.6  0.00  0.00  1.00  1.08  0.64  0.20  0.18  0.15      0      0    640
 2012 231    79    36  12.0     2  0.41   236    44     0   124     0   281     0   0.0 0.000   330 0.000 0.000 0.000 0.000 0.000   0.00   0.00 174.0  0.00  0.00  1.00  1.09  0.65  0.21  0.19  0.16      0      0    657
 2012 232    80    37  12.0     2  0.45   262    66     0   134     0   327     0   0.0 0.000   368 0.000 0.000 0.000 0.000 0.000   0.00   0.00 173.3  0.00  0.00  1.00  1.09  0.65  0.22  0.20  0.17      0      0    674
 2012 233    81    38  12.0     2  0.50   288    87     0   145     0   375     0   0.0 0.000   410 0.000 0.000 0.000 0.000 0.000   0.00   0.00 172.7  0.00  0.00  1.00  1.10  0.67  0.23  0.21  0.19      0      0    692
 2012 234    82    39  12.0     2  0.54   312   107     0   155     0   420     0   0.0 0.000   451 0.000 0.000 0.000 0.000 0.000   0.00   0.00 172.2  0.00  0.00  1.00  1.12  0.68  0.25  0.23  0.20      0      0    710
 2012 235    83    40  12.0     2  0.58   340   130     0   166     0   470     0   0.0 0.000   500 0.000 0.000 0.000 0.000 0.000   0.00   0.00 171.8  0.00  0.00  1.00  1.13  0.69  0.27  0.25  0.22      0      0    727
 2012 236    84    41  13.0     2  0.64   371   156     0   178     0   528     0   0.0 0.000   551 0.000 0.000 0.000 0.000 0.000   0.00   0.00 171.4  0.00  0.00  1.00  1.14  0.71  0.28  0.26  0.24      0      0    744
 2012 237    85    42  13.0     2  0.69   401   180     0   190     0   581     0   0.0 0.000   601 0.000 0.000 0.000 0.000 0.000   0.00   0.00 171.0  0.00  0.00  1.00  1.15  0.73  0.30  0.28  0.26      0      0    761
 2012 238    86    43  13.0     2  0.74   435   208     0   203     0   643     0   0.0 0.000   658 0.000 0.000 0.000 0.000 0.000   0.00   0.00 170.7  0.00  0.00  1.00  1.17  0.74  0.32  0.30  0.28      0      0    778
 2012 239    87    44  13.0     2  0.80   472   239     0   218     0   710     0   0.0 0.000   717 0.000 0.000 0.000 0.000 0.000   0.00   0.00 170.4  0.00  0.00  1.00  1.18  0.76  0.34  0.32  0.30      0      0    795
 2012 240    88    45  14.0     2  0.87   511   271     0   234     0   782     0   0.0 0.000   781 0.000 0.000 0.000 0.000 0.000   0.00   0.00 170.1  0.00  0.00  1.00  1.20  0.78  0.36  0.34  0.32      0      0    812
 2012 241    89    46  14.0     2  0.94   552   305     0   250     0   857     0   0.0 0.000   847 0.000 0.000 0.000 0.000 0.000   0.00   0.00 169.8  0.00  0.00  1.00  1.22  0.80  0.39  0.37  0.34      0      0    829
 2012 242    90    47  14.0     2  1.01   595   340     0   267     0   935     0   0.0 0.000   917 0.000 0.000 0.000 0.000 0.000   0.00   0.00 169.6  0.00  0.00  1.00  1.24  0.83  0.41  0.39  0.37      0      0    846
 2012 243    91    48  14.0     2  1.09   646   383     0   288     0  1029     0   0.0 0.000   991 0.000 0.000 0.000 0.000 0.000   0.00   0.00 169.4  0.00  0.00  1.00  1.27  0.85  0.44  0.42  0.40      0      0    863
 2012 244    92    49  14.0     2  1.17   689   418     0   304     0  1106     0   0.0 0.000  1062 0.000 0.000 0.000 0.000 0.000   0.00   0.00 169.2  0.00  0.00  1.00  1.29  0.88  0.47  0.45  0.43      0      0    880
 2012 245    93    50  15.0     2  1.23   729   451     0   320     0  1180     0   0.0 0.000  1127 0.000 0.000 0.000 0.000 0.000   0.00   0.00 169.1  0.00  0.00  1.00  1.32  0.91  0.50  0.48  0.45      0      0    897
 2012 246    94    51  15.0     2  1.30   770   485     0   335     0  1255     0   0.0 0.000  1193 0.000 0.000 0.000 0.000 0.000   0.00   0.00 168.9  0.00  0.00  1.00  1.34  0.93  0.52  0.50  0.48      0      0    913
 2012 247    95    52  15.0     2  1.38   820   526     0   354     0  1346     0   0.0 0.000  1276 0.000 0.000 0.000 0.000 0.000   0.00   0.00 168.8  0.00  0.00  1.00  1.36  0.95  0.55  0.53  0.50      0      0    930
 2012 248    96    53  15.0     3  1.46   863   577     0   368     0  1440     0   0.0 0.000  1361 0.000 0.000 0.000 0.000 0.000   0.00   0.00 169.3  0.00  0.00  1.00  1.38  0.98  0.58  0.56  0.53      0      0    947
 2012 249    97    54  15.0     3  1.53   901   623     0   379     0  1523     0   0.0 0.000  1429 0.000 0.000 0.000 0.000 0.000   0.00   0.00 169.7  0.00  0.00  1.00  1.40  1.00  0.60  0.58  0.56      0      0    964
 2012 250    98    55  15.0     3  1.59   937   667     0   389     0  1604     0   0.0 0.000  1494 0.000 0.000 0.000 0.000 0.000   0.00   0.00 170.1  0.00  0.00  1.00  1.42  1.02  0.62  0.60  0.57      0      0    981
 2012 251    99    56  16.0     3  1.68   983   723     0   403     0  1705     0   0.0 0.000  1588 0.000 0.000 0.000 0.000 0.000   0.00   0.00 170.5  0.00  0.00  1.00  1.43  1.03  0.63  0.62  0.59      0      0    998
 2012 252   100    57  16.0     3  1.77  1035   785     0   419     0  1820     0   0.0 0.000  1690 0.000 0.000 0.000 0.000 0.000   0.00   0.00 171.0  0.00  0.00  1.00  1.45  1.05  0.66  0.64  0.62      0      0   1015
 2012 253   101    58  16.0     3  1.87  1091   854     0   437     0  1945     0   0.0 0.000  1690 0.000 0.000 0.000 0.000 0.000   0.00   0.00 171.4  0.00  0.00  1.00  1.47  1.08  0.68  0.67  0.64      0      0   1032
 2012 254   102    59  16.0     3  1.97  1148   924     0   455     0  2072     0   0.0 0.000  1690 0.000 0.000 0.000 0.000 0.000   0.00   0.00 171.8  0.00  0.00  1.00  1.49  1.10  0.71  0.69  0.67      0      0   1049
 2012 255   103    60  16.0     3  2.08  1207   999     0   474     0  2206     0   0.0 0.000  1690 0.000 0.000 0.000 0.000 0.000   0.00   0.00 172.1  0.00  0.00  1.00  1.52  1.13  0.74  0.72  0.70      0      0   1066
 2012 256   104    61  17.0     3  2.17  1259  1067     0   490     0  2326     0   0.0 0.000  1689 0.000 0.000 0.000 0.000 0.000   0.00   0.00 172.4  0.00  0.00  1.00  1.55  1.16  0.77  0.75  0.73      0      0   1083
 2012 257   105    62  17.0     3  2.25  1304  1130     0   504     0  2434     0   0.0 0.000  1689 0.000 0.000 0.000 0.000 0.000   0.00   0.00 172.5  0.00  0.00  1.00  1.57  1.18  0.80  0.78  0.76      0      0   1100
 2012 258   106    63  17.0     3  2.35  1360  1210     0   523     0  2570     0   0.0 0.000  1689 0.000 0.000 0.000 0.000 0.000   0.00   0.00 172.7  0.00  0.00  1.00  1.59  1.21  0.82  0.81  0.78      1      0   1117
 2012 259   107    64  17.0     3  2.43  1404  1276     0   538     0  2680     0   0.0 0.000  1688 0.000 0.000 0.000 0.000 0.000   0.00   0.00 172.8  0.00  0.00  1.00  1.62  1.23  0.85  0.84  0.81      1      0   1134
 2012 260   108    65  17.0     3  2.53  1461  1363     0   558     0  2824     0   0.0 0.000  1688 0.000 0.000 0.000 0.000 0.000   0.00   0.00 172.8  0.00  0.00  1.00  1.64  1.26  0.88  0.86  0.84      1      0   1151
 2012 261   109    66  17.0     3  2.62  1514  1449     0   576     0  2963     0   0.0 0.000  1687 0.000 0.000 0.000 0.000 0.000   0.00   0.00 172.9  0.00  0.00  1.00  1.67  1.29  0.91  0.89  0.87      1      0   1168
 2012 262   110    67  18.0     3  2.69  1555  1522     0   591     0  3077     0   0.0 0.000  1687 0.000 0.000 0.000 0.000 0.000   0.00   0.00 172.8  0.00  0.00  1.00  1.69  1.32  0.94  0.93  0.90      2      0   1185
 2012 263   111    68  18.0     3  2.75  1592  1591     0   604     0  3183     0   0.0 0.000  1686 0.000 0.000 0.000 0.000 0.000   0.00   0.00 172.6  0.00  0.00  1.00  1.71  1.34  0.97  0.95  0.93      3      0   1202
 2012 264   112    69  18.0     3  2.81  1630  1667     0   618     0  3297     0   0.0 0.000  1685 0.000 0.000 0.000 0.000 0.000   0.00   0.00 172.4  0.00  0.00  1.00  1.73  1.36  0.99  0.97  0.95      3      0   1219
 2012 265   113    70  18.0     3  2.87  1670  1750     0   633     0  3420     0   0.0 0.000  1684 0.000 0.000 0.000 0.000 0.000   0.00   0.00 172.2  0.00  0.00  1.00  1.75  1.38  1.01  1.00  0.97      4      0   1236
 2012 266   114    71  18.0     3  2.94  1709  1839     0   649     0  3547     0   0.0 0.000  1683 0.000 0.000 0.000 0.000 0.000   0.00   0.00 171.9  0.00  0.00  1.00  1.78  1.41  1.04  1.02  1.00      6      0   1253
 2012 267   115    72  18.0     3  2.97  1730  1955     0   667     0  3684     0   0.0 0.000  1682 0.000 0.000 0.000 0.000 0.000   0.00   0.00 171.5  0.00  0.00  1.00  1.80  1.43  1.07  1.05  1.03      7      0   1270
 2012 268   116    73  19.0     3  2.99  1751  2073     0   685     0  3824     0   0.0 0.000  1681 0.000 0.000 0.000 0.000 0.000   0.00   0.00 171.0  0.00  0.00  1.00  1.83  1.46  1.10  1.08  1.06      9      0   1287
 2012 269   117    74  19.0     3  3.02  1772  2189     0   702     0  3961     0   0.0 0.000  1680 0.000 0.000 0.000 0.000 0.000   0.00   0.00 170.5  0.00  0.00  1.00  1.85  1.49  1.13  1.11  1.09     11      0   1304
 2012 270   118    75  19.0     3  3.05  1794  2317     0   722     0  4111     0   0.0 0.000  1678 0.000 0.000 0.000 0.000 0.000   0.00   0.00 169.9  0.00  0.00  1.00  1.88  1.52  1.16  1.14  1.12     13      0   1322
 2012 271   119    76  19.0     3  3.08  1817  2446     0   741     0  4263     0   0.0 0.000  1677 0.000 0.000 0.000 0.000 0.000   0.00   0.00 169.3  0.00  0.00  1.00  1.91  1.55  1.19  1.17  1.15     15      0   1339
 2012 272   120    77  19.0     3  3.10  1837  2565     0   759     0  4402     0   0.0 0.000  1675 0.000 0.000 0.000 0.000 0.000   0.00   0.00 168.6  0.00  0.00  1.00  1.94  1.58  1.22  1.21  1.19     18      0   1357
 2012 273   121    78  19.0     4  3.05  1836  2709     0   776     0  4545     0   0.0 0.000  1052 0.000 0.000 0.000 0.000 0.000   0.00   0.00 166.1  0.00  0.00  1.00  1.97  1.61  1.25  1.24  1.22     23      0   1374
 2012 274   122    79  19.0     4  3.00  1835  2846     0   793     0  4681     0   0.0 0.000  1044 0.000 0.000 0.000 0.000 0.000   0.00   0.00 163.6  0.00  0.00  1.00  1.99  1.64  1.29  1.27  1.25     28      0   1391
 2012 275   123    80  19.0     4  2.95  1834  2989     0   810     0  4823     0   0.0 0.000  1035 0.000 0.000 0.000 0.000 0.000   0.00   0.00 161.1  0.00  0.00  1.00  2.02  1.67  1.31  1.30  1.28     35      0   1408
 2012 276   124    81  19.0     4  2.91  1833  3136     0   828     0  4969     0   0.0 0.000  1026 0.000 0.000 0.000 0.000 0.000   0.00   0.00 158.5  0.00  0.00  1.00  2.04  1.69  1.34  1.33  1.31     42      0   1425
 2012 277   125    82  19.0     4  2.86  1831  3267     0   843     0  5098     0   0.0 0.000  1016 0.000 0.000 0.000 0.000 0.000   0.00   0.00 156.0  0.00  0.00  1.00  2.07  1.72  1.38  1.36  1.34     52      0   1442
 2012 278   126    83  19.0     4  2.81  1830  3391     0   856     0  5222     0   0.0 0.000  1005 0.000 0.000 0.000 0.000 0.000   0.00   0.00 153.5  0.00  0.00  1.00  2.10  1.75  1.40  1.39  1.37     62      0   1459
 2012 279   127    84  19.0     4  2.76  1829  3536     0   873     0  5365     0   0.0 0.000   994 0.000 0.000 0.000 0.000 0.000   0.00   0.00 150.9  0.00  0.00  1.00  2.12  1.77  1.43  1.41  1.39     73      0   1476
 2012 280   128    85  19.0     5  2.71  1828  1332  1537   881  2353  5512  6402  36.8 0.279   662 0.000 0.000 0.000 0.000 0.000   0.00  65.30 148.4  0.00  0.00  1.00  2.14  1.80  1.46  1.44  1.42     86      0   1494
 2012 281   129    86  19.0     5  2.66  1827  1395  1615   888  2432  5654  6730  36.1 0.286   662 0.000 0.000 0.000 0.000 0.000   0.00  66.43 145.8  0.00  0.00  1.00  2.16  1.81  1.47  1.46  1.44    100      0   1512
 2012 282   130    87  19.0     5  2.62  1825  1455  1691   894  2508  5788  7046  35.6 0.292   662 0.000 0.000 0.000 0.000 0.000   0.00  67.44 143.3  0.00  0.00  1.00  2.17  1.83  1.49  1.47  1.45    115      0   1529
 2012 283   131    88  19.0     5  2.57  1824  1514  1765   900  2582  5920  7355  35.1 0.298   662 0.000 0.000 0.000 0.000 0.000   0.00  68.38 140.7  0.00  0.00  1.00  2.18  1.84  1.50  1.49  1.47    131      0   1546
 2012 284   132    89  19.0     5  2.52  1823  1564  1838   904  2654  6041  7657  34.7 0.304   662 0.000 0.000 0.000 0.000 0.000   0.00  69.24 138.2  0.00  0.00  1.00  2.19  1.85  1.52  1.50  1.48    148      0   1563
 2012 285   133    90  19.0     5  2.47  1822  1630  1909   911  2725  6177  7954  34.3 0.309   662 0.000 0.000 0.000 0.000 0.000   0.00  70.04 135.6  0.00  0.00  1.00  2.20  1.86  1.53  1.52  1.50    167      0   1580
 2012 286   134    91  19.0     5  2.42  1821  1680  1980   915  2797  6298  8252  33.9 0.314   662 0.000 0.000 0.000 0.000 0.000   0.00  70.81 133.1  0.00  0.00  1.00  2.21  1.88  1.55  1.53  1.51    187      0   1597
 2012 287   135    92  19.0     5  2.37  1819  1746  2051   921  2867  6433  8544  33.6 0.319   662 0.000 0.000 0.000 0.000 0.000   0.00  71.52 130.5  0.00  0.00  1.00  2.22  1.89  1.56  1.54  1.52    208      0   1614
 2012 288   136    93  19.0     5  2.33  1818  1810  2119   926  2936  6564  8830  33.2 0.323   662 0.000 0.000 0.000 0.000 0.000   0.00  72.19 127.9  0.00  0.00  1.00  2.23  1.90  1.57  1.56  1.54    230      0   1631
 2012 289   137    94  19.0     5  2.28  1817  1879  2187   932  3003  6699  9111  33.0 0.326   662 0.000 0.000 0.000 0.000 0.000   0.00  72.81 125.4  0.00  0.00  1.00  2.24  1.91  1.59  1.57  1.55    254      0   1648
 2012 290   138    95  19.0     5  2.23  1816  1939  2254   937  3070  6826  9391  32.7 0.330   662 0.000 0.000 0.000 0.000 0.000   0.00  73.41 122.8  0.00  0.00  1.00  2.25  1.93  1.60  1.58  1.56    279      0   1666
 2012 291   139    96  19.0     5  2.18  1815  1988  2320   941  3136  6939  9665  32.4 0.334   662 0.000 0.000 0.000 0.000 0.000   0.00  73.97 120.2  0.00  0.00  1.00  2.26  1.94  1.61  1.60  1.58    305      0   1683
 2012 292   140    97  19.0     5  2.13  1813  2027  2385   943  3202  7043  9939  32.2 0.339   662 0.000 0.000 0.000 0.000 0.000   0.00  74.50 117.6  0.00  0.00  1.00  2.27  1.95  1.62  1.61  1.59    332      0   1701
 2012 293   141    98  19.0     5  2.08  1812  2079  2448   946  3265  7156 10202  32.0 0.342   662 0.000 0.000 0.000 0.000 0.000   0.00  74.99 115.0  0.00  0.00  1.00  2.27  1.95  1.63  1.62  1.60    360      0   1718
 2012 294   142    99  19.0     5  2.04  1811  2107  2510   947  3327  7244 10460  31.8 0.347   662 0.000 0.000 0.000 0.000 0.000   0.00  75.46 112.5  0.00  0.00  1.00  2.28  1.96  1.64  1.63  1.61    390      0   1735
 2012 295   143   100  19.0     5  1.99  1810  2160  2569   950  3386  7355 10706  31.6 0.349   662 0.000 0.000 0.000 0.000 0.000   0.00  75.89 109.9  0.00  0.00  1.00  2.28  1.97  1.65  1.63  1.61    420      0   1752
 2012 296   144   101  19.0     5  1.97  1809  2185  2628   949  3444  7439 10950  31.5 0.353   662 0.000 0.000 0.000 0.000 0.000   0.00  76.30 109.1  0.00  0.00  1.00  2.29  1.97  1.66  1.64  1.62    451      0   1769
 2012 297   145   102  19.0     5  1.96  1809  2222  2688   951  3504  7535 11199  31.3 0.357   662 0.000 0.000 0.000 0.000 0.000   0.00  76.70 108.3  0.00  0.00  1.00  2.29  1.98  1.66  1.65  1.63    483      0   1787
 2012 298   146   103  19.0     5  1.94  1809  2274  2746   953  3563  7645 11443  31.1 0.359   662 0.000 0.000 0.000 0.000 0.000   0.00  77.08 107.4  0.00  0.00  1.00  2.30  1.98  1.67  1.66  1.64    515      0   1805
 2012 299   147   104  19.0     5  1.93  1808  2320  2805   955  3621  7750 11687  31.0 0.362   662 0.000 0.000 0.000 0.000 0.000   0.00  77.45 106.6  0.00  0.00  1.00  2.30  1.99  1.68  1.67  1.65    547      0   1823
 2012 300   148   105  19.0     5  1.91  1808  2369  2861   958  3678  7855 11922  30.8 0.364   662 0.000 0.000 0.000 0.000 0.000   0.00  77.80 105.7  0.00  0.00  1.00  2.30  2.00  1.69  1.67  1.66    580      0   1840
 2012 301   149   106  19.0     5  1.89  1807  2415  2915   959  3732  7955 12148  30.7 0.367   662 0.000 0.000 0.000 0.000 0.000   0.00  78.12 104.8  0.00  0.00  1.00  2.30  2.01  1.70  1.68  1.67    613      0   1857
 2012 302   150   107  19.0     5  1.88  1807  2457  2969   960  3786  8050 12373  30.6 0.369   662 0.000 0.161 0.000 0.000 0.000   0.00  78.43 103.9  0.00  0.00  1.00  2.31  2.01  1.71  1.69  1.67    646      0   1874
 2012 303   151   108  19.0     5  1.86  1807  2492  3023   961  3840  8138 12597  30.5 0.372   662 0.000 0.174 0.000 0.000 0.000   0.00  78.74 103.0  0.00  0.00  1.00  2.31  2.02  1.71  1.70  1.68    680      0   1892
 2012 304   152   109  19.0     5  1.84  1806  2524  3063   961  3879  8209 12761  30.4 0.373   662 0.257 0.505 0.000 0.000 0.000   0.00  78.95 101.7  0.00  0.00  1.00  2.32  2.02  1.72  1.70  1.69    715      0   1910
 2012 305   153   110  19.0     5  1.82  1806  2568  3114   962  3930  8304 12973  30.3 0.375   662 0.000 0.042 0.000 0.000 0.000   0.00  79.23 100.7  0.00  0.00  1.00  2.32  2.03  1.72  1.71  1.69    750      0   1927
 2012 306   154   111  19.0     5  1.80  1805  2608  3161   963  3978  8390 13172  30.2 0.377   662 0.061 0.374 0.000 0.000 0.000   0.00  79.47  99.8  0.00  0.00  1.00  2.33  2.03  1.73  1.72  1.70    785      0   1944
 2012 307   155   112  19.0     5  1.78  1804  2639  3199   963  4016  8459 13330  30.1 0.378   662 0.250 0.500 0.000 0.000 0.000   0.00  79.67  98.5  0.00  0.00  1.00  2.32  2.04  1.73  1.72  1.70    821      0   1962
 2012 308   156   113  19.0     5  1.72  1803  2652  3216   959  4032  8487 13398  30.1 0.379   662 0.672 0.781 0.000 0.000 0.000   0.00  79.75  95.3  0.00  0.00  1.00  2.31  2.05  1.74  1.73  1.71    859      0   1980
 2012 309   157   114  19.0     5  1.66  1802  2662  3232   955  4048  8512 13466  30.1 0.380   662 0.669 0.779 0.000 0.000 0.000   0.00  79.83  92.2  0.00  0.00  1.00  2.30  2.04  1.73  1.73  1.71    898      0   1997
 2012 310   158   115  19.0     5  1.61  1800  2670  3249   950  4065  8535 13536  30.0 0.381   662 0.655 0.770 0.000 0.000 0.000   0.00  79.92  89.2  0.00  0.00  1.00  2.29  2.04  1.73  1.72  1.71    938      0   2014
 2012 311   159   116  19.0     5  1.55  1799  2677  3263   945  4079  8555 13596  30.0 0.381   662 0.698 0.799 0.000 0.000 0.000   0.00  79.99  86.2  0.00  0.00  1.00  2.27  2.04  1.73  1.72  1.71    980      0   2031
 2012 312   160   117  19.0     5  1.49  1797  2683  3274   940  4091  8571 13642  30.0 0.382   662 0.772 0.848 0.000 0.000 0.000   0.00  80.04  82.9  0.00  0.00  1.00  2.26  2.03  1.73  1.72  1.70   1023      0   2048
 2012 313   161   118  19.0     5  1.43  1796  2688  3286   934  4102  8586 13691  30.0 0.383   662 0.757 0.838 0.000 0.000 0.000   0.00  80.10  79.9  0.00  0.00  1.00  2.25  2.02  1.72  1.72  1.70   1067      0   2065
 2012 314   162   119  19.0     5  1.38  1794  2693  3296   928  4112  8600 13733  29.9 0.383   662 0.782 0.855 0.000 0.000 0.000   0.00  80.15  76.8  0.00  0.00  1.00  2.24  2.02  1.72  1.71  1.70   1113      0   2082
 2012 315   163   120  19.0     5  1.32  1793  2696  3306   921  4123  8612 13776  29.9 0.384   662 0.790 0.860 0.000 0.000 0.000   0.00  80.20  73.8  0.00  0.00  1.00  2.23  2.01  1.71  1.71  1.69   1161      0   2100
 2012 316   164   121  19.0     5  1.29  1792  2694  3327   915  4144  8629 13864  29.9 0.386   662 0.555 0.703 0.000 0.000 0.000   0.00  80.30  71.8  0.00  0.00  1.00  2.23  2.00  1.71  1.70  1.69   1209      0   2117
 2012 317   165   122  19.0     5  1.24  1792  2694  3342   910  4158  8643 13923  29.9 0.387   662 0.771 0.847 0.000 0.000 0.000   0.00  80.36  69.1  0.00  0.00  1.00  2.22  1.99  1.70  1.70  1.68   1258      0   2134
 2012 318   166   123  19.0     6  1.24  1792  2694  3342   910  4158  8643 13923  29.9 0.387   662 0.810 0.873 0.000 0.000 0.000   0.00  80.36  69.1  0.00  0.00  1.00  2.21  1.98  1.70  1.69  1.68   1258      0   2152
 2012 319   167   124  19.0    20  1.24  1792  2694  3342   910  4158  8643 13923  29.9 0.387   662 0.781 0.854 0.000 0.000 0.000   0.00  80.36  69.1  0.00  0.00  1.00  2.20  1.97  1.69  1.69  1.67   1258      0   2152
 2012 320   168   125  19.0    20  1.24  1792  2694  3342   910  4158  8643 13923  29.9 0.387   662 0.811 0.874 0.000 0.000 0.000   0.00  80.36  69.1  0.00  0.00  1.00  2.19  1.96  1.69  1.68  1.67   1258      0   2169
