*WATER BALANCE OUTPUT FILE

*DSSAT Cropping System Model Ver. 4.8.2.000 -release  APR 22, 2025 15:19:20

*RUN   1        : F1 NE 4                   RICER048 CRDA1201    1
 MODEL          : RICER048 - Rice
 EXPERIMENT     : CRDA1201 WH ESSAI VARIETE DAROU PAKA 2012
 DATA PATH      :
 TREATMENT  1   : F1 NE 4                   RICER048
  

!     WATER BALANCE PARAMETERS
!     ========================                 --mm--

!     Soil H20 (start) on Year/day 2012/153    279.50
!     Soil H20 (final) on Year/day 2012/320    182.73
!     Effective Irrigation                       0.00
!     Precipitation                           1174.80
!     Water added with new mulch                 0.00
!     Net lateral flow                           0.00
!     Drainage                                 487.90
!     Tiledrain flow                             0.00
!     Runoff                                    42.69
!     Mulch evaporation                          1.04
!     Soil Evaporation                         503.14
!     Transpiration                            236.70
!     Total evapotranspiration                 739.85
!     Total potential evapotranspiration       885.09

!     Initial mulch water content                0.00
!     Final mulch water content                  0.09

!     Final Balance                             0.001

