*SOM C DAILY OUTPUT FILE

*DSSAT Cropping System Model Ver. 4.8.2.000 -release  APR 22, 2025 15:19:20

*RUN   1        : F1 NE 4                   RICER048 CRDA1201    1
 MODEL          : RICER048 - Rice
 EXPERIMENT     : CRDA1201 WH ESSAI VARIETE DAROU PAKA 2012
 DATA PATH      :
 TREATMENT  1   : F1 NE 4                   RICER048
  
!                                                                                                                                                                                                                                                                                                                                                                                                                                                                                    Cumul.
!               <---- SOM C in top layers ----> <- SOM + LIT C in top layers -> <------------ Total Soil Organic Carbon (SOM + LIT) ------------> <--------- Active Soil Organic Carbon (SOM1) ---------> <---- Intermediate Soil Organic C (SOM2) -----> <------- Passive Soil Organic C (SOM3) -------> <------------------ Litter Carbon --------------------> <-------------- Metabolic Litter Carbon --------------> <------------- Structural Litter Carbon -------------->  Resid.  <-Accum. CO2->
!               20cm-kg  20cm-% 40cm-kg  40cm-% 20cm-kg  20cm-% 40cm-kg  40cm-%     Total Surface    Soil     0-5    5-15   15-30   30-45  45-100 Surface    Soil     0-5    5-15   15-30   30-45  45-100    Soil     0-5    5-15   15-30   30-45  45-100    Soil     0-5    5-15   15-30   30-45  45-100 Surface    Soil     0-5    5-15   15-30   30-45  45-100 Surface    Soil     0-5    5-15   15-30   30-45  45-100 Surface    Soil     0-5    5-15   15-30   30-45  45-100 (kg/ha) Surface    Soil
@YEAR DOY   DAS  SCS20D  SC%20D  SCS40D  SC%40D  SLC20D  SL%20D  SLC40D  SL%40D      SOCD    SC0D    SCTD    SC1D    SC2D    SC3D    SC4D   SC5+D   S1C0D   S1CTD   S1C1D   S1C2D   S1C3D   S1C4D  S1C5+D   S2CTD   S2C1D   S2C2D   S2C3D   S2C4D  S2C5+D   S3CTD   S3C1D   S3C2D   S3C3D   S3C4D  S3C5+D    LC0D    LCTD    LC1D    LC2D    LC3D    LC4D   LC5+D   MEC0D   MECTD   MEC1D   MEC2D   MEC3D   MEC4D  MEC5+D   STC0D   STCTD   STC1D   STC2D   STC3D   STC4D  STC5+D    RESC   CO20C   CO2SC
 2012 152     0   46466   1.523   48298   1.599   46505   1.525   48320   1.600    263945       0  263945   11475   22950   36240   36240  157040       0    7680     314     628     979     979    4781  145921    5962   11929   18593   18600   90837  110260    5187   10373   16648   16648   61404       0      84      12      20      20      13      18       0      69      10      16      17      11      15       0      15       2       4       4       2       3       0       0       0
 2012 153     1   46441   1.523   48274   1.598   46478   1.524   48295   1.599    263804       0  263804   11468   22937   36221   36222  156957       0    7591     310     620     967     967    4727  145874    5960   11925   18587   18594   90808  110260    5187   10373   16648   16648   61405       0      79      12      19      19      12      17       0      64       9      15      15      10      14       0      15       2       4       4       2       3       0       0     141
 2012 154     2   46418   1.522   48251   1.598   46453   1.523   48270   1.598    263666       0  263666   11462   22923   36202   36203  156875       0    7505     306     612     956     956    4675  145826    5958   11920   18581   18588   90779  110260    5187   10373   16648   16648   61405       0      74      11      18      18      11      16       0      59       9      14      14       9      13       0      15       2       4       4       2       3       0       0     279
 2012 155     3   46396   1.521   48227   1.597   46429   1.522   48246   1.598    263531       0  263531   11457   22911   36183   36185  156794       0    7422     304     605     945     945    4623  145778    5956   11916   18574   18582   90750  110261    5187   10373   16648   16648   61405       0      70      11      17      17      11      15       0      55       8      13      13       9      12       0      15       2       4       4       2       3       0       0     414
 2012 156     4   46374   1.520   48204   1.596   46406   1.521   48222   1.597    263397       0  263397   11452   22898   36165   36168  156714       0    7340     301     598     934     935    4573  145730    5955   11912   18568   18575   90721  110261    5187   10373   16648   16648   61406       0      67      10      16      16      10      15       0      52       8      12      12       8      11       0      15       2       4       4       2       3       0       0     548
 2012 157     5   46352   1.520   48182   1.595   46381   1.521   48199   1.596    263266       0  263266   11446   22886   36147   36151  156636       0    7260     297     590     923     924    4525  145682    5952   11907   18561   18569   90692  110261    5187   10373   16648   16648   61406       0      63      10      15      15      10      14       0      48       7      11      11       7      11       0      15       2       4       4       2       3       0       0     679
 2012 158     6   46331   1.519   48161   1.595   46359   1.520   48177   1.595    263142       0  263142   11440   22875   36131   36134  156561       0    7185     294     584     914     915    4478  145636    5951   11903   18555   18563   90664  110262    5187   10373   16648   16648   61406       0      60       9      14      14       9      13       0      45       7      10      11       7      10       0      15       2       4       4       2       3       0       0     803
 2012 159     7   46311   1.518   48140   1.594   46338   1.519   48155   1.595    263019       0  263019   11436   22864   36115   36118  156487       0    7112     291     578     905     905    4433  145589    5949   11899   18549   18557   90635  110262    5187   10373   16648   16648   61406       0      57       9      13      14       9      13       0      42       6      10      10       6       9       0      15       2       4       4       2       3       0       0     926
 2012 160     8   46292   1.518   48120   1.593   46317   1.519   48134   1.594    262897       0  262897   11432   22853   36099   36102  156412       0    7039     289     572     895     896    4388  145541    5947   11895   18543   18550   90606  110262    5187   10373   16648   16648   61407       0      55       8      13      13       8      12       0      40       6       9       9       6       9       0      15       2       4       4       2       3       0       0    1048
 2012 161     9   46274   1.517   48099   1.593   46298   1.518   48113   1.593    262778       0  262778   11428   22842   36083   36086  156338       0    6969     287     566     886     886    4344  145494    5946   11891   18536   18544   90576  110262    5187   10373   16648   16648   61407       0      52       8      12      12       8      11       0      37       6       9       9       6       8       0      15       2       4       4       2       3       0       0    1167
 2012 162    10   46256   1.517   48079   1.592   46280   1.517   48091   1.592    262660       0  262660   11425   22832   36067   36070  156265       0    6900     286     560     877     877    4301  145447    5945   11887   18530   18538   90546  110262    5187   10373   16648   16648   61407       0      50       8      12      12       8      11       0      35       6       8       8       5       8       0      15       2       4       4       2       3       0       0    1285
 2012 163    11   46237   1.516   48058   1.591   46259   1.517   48070   1.592    262538       0  262538   11420   22822   36051   36054  156191       0    6831     283     554     868     868    4257  145398    5943   11883   18524   18531   90516  110263    5187   10373   16648   16648   61407       0      48       8      11      11       7      10       0      33       5       8       8       5       7       0      15       2       4       4       2       3       0       0    1407
 2012 164    12   46216   1.515   48037   1.591   46238   1.516   48049   1.591    262417       0  262417   11415   22812   36035   36038  156117       0    6761     280     548     860     859    4215  145347    5941   11879   18517   18525   90485  110263    5187   10373   16648   16648   61408       0      46       7      11      11       7      10       0      31       5       7       7       5       7       0      15       2       4       4       2       3       0       0    1528
 2012 165    13   46195   1.515   48017   1.590   46215   1.515   48028   1.590    262295       0  262295   11408   22801   36020   36023  156044       0    6692     276     542     851     850    4172  145296    5939   11875   18511   18518   90454  110263    5187   10373   16648   16648   61408       0      43       7      10      10       7      10       0      29       5       7       7       4       6       0      15       2       4       4       2       3       0       0    1650
 2012 166    14   46173   1.514   47997   1.589   46193   1.515   48008   1.590    262176       0  262176   11402   22789   36004   36008  155973       0    6626     273     536     843     842    4132  145246    5936   11870   18504   18512   90424  110263    5187   10373   16648   16648   61408       0      42       7      10      10       6       9       0      27       4       6       6       4       6       0      15       2       4       4       2       3       0       0    1769
 2012 167    15   46152   1.513   47979   1.589   46171   1.514   47989   1.589    262064       0  262064   11396   22778   35990   35994  155906       0    6564     270     530     835     835    4095  145197    5934   11865   18498   18506   90394  110263    5187   10373   16648   16648   61408       0      40       6       9       9       6       9       0      25       4       6       6       4       6       0      15       2       4       4       2       3       0       0    1881
 2012 168    16   46132   1.513   47961   1.588   46149   1.513   47971   1.588    261957       0  261957   11391   22767   35975   35981  155843       0    6505     267     524     827     828    4060  145150    5931   11861   18492   18500   90366  110263    5187   10373   16648   16648   61408       0      38       6       9       9       6       8       0      23       4       5       6       4       5       0      15       2       4       4       2       3       0       0    1988
 2012 169    17   46111   1.512   47944   1.588   46128   1.512   47953   1.588    261855       0  261855   11385   22756   35961   35969  155783       0    6450     264     519     820     821    4027  145105    5929   11856   18485   18495   90339  110263    5187   10373   16648   16648   61409       0      37       6       8       9       6       8       0      22       3       5       5       3       5       0      15       2       4       4       2       3       0       0    2091
 2012 170    18   46092   1.511   47927   1.587   46108   1.512   47936   1.587    261756       0  261756   11380   22746   35946   35958  155726       0    6397     261     513     812     815    3996  145060    5927   11852   18479   18489   90314  110263    5187   10373   16648   16648   61409       0      36       5       8       8       6       8       0      21       3       5       5       3       5       0      15       2       4       4       2       3       0       0    2189
 2012 171    19   46072   1.511   47909   1.586   46088   1.511   47918   1.587    261661       0  261661   11375   22736   35931   35946  155672       0    6346     259     508     804     809    3967  145017    5925   11847   18472   18484   90289  110263    5187   10373   16647   16648   61409       0      34       5       8       8       5       8       0      19       3       4       5       3       4       0      15       2       4       4       2       3       0       0    2285
 2012 172    20   46053   1.510   47892   1.586   46068   1.510   47901   1.586    261568       0  261568   11370   22726   35917   35935  155621       0    6297     256     503     796     803    3939  144974    5922   11842   18465   18479   90265  110263    5187   10373   16647   16647   61409       0      33       5       8       8       5       8       0      18       3       4       4       3       4       0      15       2       4       4       2       3       0       0    2377
 2012 173    21   46034   1.509   47876   1.585   46049   1.510   47884   1.586    261480       0  261480   11365   22716   35903   35924  155573       0    6251     253     498     789     797    3913  144933    5920   11838   18459   18474   90243  110264    5187   10373   16647   16647   61409       0      32       5       7       8       5       7       0      17       3       4       4       3       4       0      15       2       4       4       2       3       0       0    2465
 2012 174    22   46016   1.509   47860   1.585   46030   1.509   47868   1.585    261396       0  261396   11360   22707   35889   35913  155526       0    6207     251     493     782     792    3889  144894    5918   11834   18452   18469   90221  110264    5187   10373   16647   16647   61409       0      31       5       7       7       5       7       0      16       2       4       4       3       4       0      15       2       4       4       2       3       0       0    2550
 2012 175    23   45999   1.508   47845   1.584   46013   1.509   47853   1.585    261315       0  261315   11356   22698   35876   35903  155481       0    6165     249     489     776     787    3865  144855    5916   11830   18446   18464   90199  110264    5186   10373   16647   16647   61409       0      30       5       7       7       5       7       0      16       2       3       4       3       4       0      15       2       4       4       2       3       0       0    2630
 2012 176    24   45981   1.508   47830   1.584   45994   1.508   47838   1.584    261233       0  261233   11351   22689   35864   35894  155436       0    6124     246     484     770     782    3842  144816    5914   11825   18440   18460   90178  110264    5186   10373   16647   16647   61409       0      30       4       7       7       5       7       0      15       2       3       3       2       4       0      15       2       4       4       2       3       0       0    2712
 2012 177    25   45963   1.507   47815   1.583   45976   1.507   47823   1.584    261152       0  261152   11346   22679   35850   35884  155393       0    6083     244     479     763     777    3819  144777    5912   11821   18433   18455   90157  110264    5186   10373   16647   16647   61410       0      29       4       6       7       5       7       0      14       2       3       3       2       3       0      15       2       4       4       2       3       0       0    2793
 2012 178    26   45947   1.506   47797   1.583   45959   1.507   47805   1.583    261071       0  261071   11342   22671   35837   35870  155350       0    6042     242     476     756     770    3798  144738    5910   11817   18427   18448   90136  110264    5186   10373   16647   16647   61410       0      28       4       6       7       4       7       0      13       2       3       3       2       3       0      15       2       4       4       2       3       0       0    2874
 2012 179    27   45929   1.506   47780   1.582   45942   1.506   47787   1.582    260989       0  260989   11338   22663   35824   35857  155307       0    6001     240     471     750     764    3776  144697    5907   11812   18420   18442   90115  110264    5186   10373   16647   16647   61410       0      27       4       6       6       4       6       0      12       2       3       3       2       3       0      15       2       4       4       2       3       0       0    2956
 2012 180    28   45913   1.505   47764   1.582   45925   1.506   47771   1.582    260908       0  260908   11333   22654   35811   35845  155265       0    5961     238     467     744     758    3754  144657    5905   11808   18414   18436   90094  110263    5186   10373   16647   16647   61410       0      27       4       6       6       4       6       0      12       2       2       3       2       3       0      15       2       4       4       2       3       0       0    3037
 2012 181    29   45896   1.505   47747   1.581   45908   1.505   47754   1.581    260828       0  260828   11330   22646   35798   35832  155222       0    5922     236     463     738     751    3733  144617    5903   11804   18407   18429   90073  110263    5186   10373   16647   16647   61410       0      26       4       6       6       4       6       0      11       2       2       2       2       3       0      15       2       4       4       2       3       0       0    3117
 2012 182    30   45880   1.504   47731   1.580   45892   1.505   47737   1.581    260748       0  260748   11326   22638   35786   35820  155179       0    5883     234     460     732     746    3712  144576    5902   11800   18401   18423   90051  110263    5186   10373   16647   16647   61410       0      25       4       6       6       4       6       0      11       2       2       2       2       3       0      15       2       3       4       2       3       0       0    3197
 2012 183    31   45865   1.504   47714   1.580   45876   1.504   47721   1.580    260667       0  260667   11322   22629   35774   35808  155135       0    5844     232     456     726     740    3690  144535    5900   11795   18394   18417   90029  110263    5186   10373   16647   16647   61410       0      25       4       6       6       4       6       0      10       1       2       2       2       3       0      15       2       3       4       2       3       0       0    3278
 2012 184    32   44736   1.501   47697   1.579   44747   1.502   47704   1.580    260584       0  260584   11313   22624   35761   35796  155091       0    5804     228     454     721     734    3668  144493    5896   11792   18388   18411   90007  110263    5186   10373   16647   16647   61410       0      24       3       6       6       4       6       0      10       1       2       2       2       3       0      15       2       4       4       2       3       0       0    3361
 2012 185    33   45107   1.501   47683   1.579   45118   1.502   47689   1.579    260503       0  260503   11307   22617   35750   35784  155044       0    5765     225     450     716     729    3645  144450    5893   11788   18382   18405   89983  110263    5186   10373   16647   16647   61410       0      24       3       6       6       4       6       0       9       1       2       2       1       2       0      15       2       4       4       2       3       0       0    3442
 2012 186    34   45177   1.501   47669   1.578   45188   1.501   47675   1.579    260420       0  260420   11302   22610   35740   35773  154995       0    5726     223     447     711     724    3622  144407    5890   11784   18376   18399   89958  110263    5186   10373   16647   16647   61410       0      23       3       6       5       4       6       0       9       1       2       2       1       2       0      15       2       4       4       2       3       0       0    3525
 2012 187    35   45310   1.501   47654   1.578   45321   1.501   47660   1.578    260332       0  260332   11296   22602   35728   35762  154943       0    5685     220     444     706     719    3597  144361    5887   11780   18370   18393   89930  110263    5186   10373   16647   16647   61410       0      23       3       5       5       4       5       0       8       1       2       2       1       2       0      15       2       4       4       2       3       0       0    3613
 2012 188    36   45341   1.500   47639   1.577   45351   1.501   47645   1.578    260242       0  260242   11290   22595   35717   35751  154888       0    5643     218     440     701     713    3571  144313    5884   11776   18364   18387   89902  110263    5186   10373   16647   16647   61410       0      22       3       5       5       4       5       0       8       1       2       2       1       2       0      15       2       4       4       2       3       0       0    3703
 2012 189    37   45393   1.500   47624   1.577   45403   1.500   47630   1.577    260149       0  260149   11284   22587   35705   35740  154833       0    5601     215     437     696     708    3545  144264    5880   11772   18357   18381   89873  110263    5186   10373   16647   16647   61410       0      22       3       5       5       3       5       0       7       1       2       2       1       2       0      15       2       4       4       2       3       0       0    3796
 2012 190    38   45459   1.499   47608   1.576   45468   1.500   47614   1.577    260058       0  260058   11279   22579   35693   35728  154779       0    5559     212     434     691     703    3520  144214    5877   11768   18351   18375   89844  110263    5186   10372   16647   16647   61411       0      22       3       5       5       3       5       0       7       1       2       2       1       2       0      15       2       4       4       2       3       0       0    3887
 2012 191    39   45729   1.499   47594   1.576   45739   1.500   47599   1.576    259968       0  259968   11273   22571   35682   35717  154724       0    5519     210     430     686     698    3494  144165    5874   11764   18345   18368   89815  110263    5186   10372   16647   16647   61411       0      21       3       5       5       3       5       0       7       1       1       1       1       2       0      15       2       4       4       2       3       0       0    3977
 2012 192    40   45713   1.499   47579   1.575   45723   1.499   47584   1.576    259879       0  259879   11268   22565   35671   35705  154670       0    5479     208     427     681     693    3470  144116    5871   11760   18338   18362   89785  110263    5186   10372   16647   16647   61411       0      21       3       5       5       3       5       0       6       1       1       1       1       2       0      15       2       4       4       2       3       0       0    4066
 2012 193    41   45697   1.498   47564   1.575   45706   1.499   47570   1.575    259791       0  259791   11262   22557   35660   35694  154617       0    5440     206     424     676     688    3445  144068    5868   11756   18332   18356   89756  110263    5186   10372   16647   16647   61411       0      21       3       5       5       3       5       0       6       1       1       1       1       2       0      15       2       4       4       2       3       0       0    4154
 2012 194    42   45680   1.498   47550   1.574   45690   1.498   47555   1.575    259703       0  259703   11257   22550   35649   35684  154564       0    5402     203     421     672     684    3422  144019    5864   11752   18326   18350   89727  110263    5186   10372   16647   16647   61411       0      20       3       5       5       3       5       0       6       1       1       1       1       2       0      15       2       4       4       2       3       0       0    4242
 2012 195    43   45664   1.497   47535   1.574   45674   1.497   47540   1.574    259616       0  259616   11252   22543   35638   35672  154511       0    5364     201     418     667     679    3398  143969    5861   11747   18319   18344   89697  110262    5186   10372   16647   16647   61411       0      20       3       5       5       3       5       0       5       1       1       1       1       1       0      15       2       4       4       2       3       0       0    4329
 2012 196    44   45649   1.497   47520   1.574   45657   1.497   47525   1.574    259528       0  259528   11246   22536   35627   35661  154458       0    5326     199     415     663     674    3375  143920    5858   11743   18313   18337   89668  110262    5186   10372   16647   16647   61411       0      20       3       5       5       3       5       0       5       1       1       1       1       1       0      15       2       4       4       2       3       0       0    4417
 2012 197    45   45634   1.496   47507   1.573   45642   1.496   47512   1.573    259443       0  259443   11241   22529   35616   35651  154406       0    5290     197     413     658     670    3352  143871    5855   11740   18307   18331   89638  110262    5186   10372   16646   16647   61411       0      19       3       5       5       3       4       0       5       1       1       1       1       1       0      15       2       4       4       2       3       0       0    4502
 2012 198    46   45618   1.496   47493   1.573   45627   1.496   47498   1.573    259359       0  259359   11236   22522   35606   35641  154355       0    5255     195     410     654     666    3330  143823    5852   11735   18301   18325   89609  110262    5186   10372   16646   16647   61411       0      19       3       5       5       3       4       0       5       1       1       1       1       1       0      15       2       4       4       2       3       0       0    4586
 2012 199    47   45602   1.495   47479   1.572   45611   1.495   47484   1.572    259275       0  259275   11231   22515   35595   35630  154304       0    5220     193     407     650     661    3308  143774    5849   11731   18294   18319   89580  110262    5186   10372   16646   16647   61411       0      19       3       5       4       3       4       0       4       1       1       1       1       1       0      15       2       4       4       2       3       0       0    4670
 2012 200    48   45587   1.495   47464   1.572   45595   1.495   47469   1.572    259191       0  259191   11226   22508   35585   35619  154253       0    5185     192     404     646     657    3287  143725    5846   11727   18288   18313   89551  110262    5186   10372   16646   16646   61411       0      19       3       5       4       3       4       0       4       1       1       1       1       1       0      15       2       4       4       2       3       0       0    4754
 2012 201    49   45570   1.494   47450   1.571   45579   1.494   47455   1.571    259105       0  259105   11220   22501   35574   35609  154202       0    5150     190     401     641     653    3265  143674    5842   11723   18281   18307   89521  110262    5186   10372   16646   16646   61411       0      18       3       4       4       3       4       0       4       1       1       1       1       1       0      15       2       4       4       2       3       0       0    4840
 2012 202    50   45554   1.494   47435   1.571   45562   1.494   47440   1.571    259018       0  259018   11215   22493   35562   35598  154150       0    5116     188     399     637     648    3244  143623    5839   11718   18275   18300   89491  110262    5186   10372   16646   16646   61411       0      18       2       4       4       3       4       0       4       0       1       1       1       1       0      15       2       4       4       2       3       0       0    4927
 2012 203    51   45538   1.493   47421   1.570   45546   1.493   47425   1.570    258931       0  258931   11210   22486   35551   35587  154097       0    5081     186     396     633     644    3222  143571    5835   11714   18268   18294   89460  110261    5186   10372   16646   16646   61411       0      18       2       4       4       3       4       0       3       0       1       1       1       1       0      15       2       4       4       2       3       0       0    5014
 2012 204    52   45522   1.493   47406   1.570   45530   1.493   47411   1.570    258844       0  258844   11205   22479   35540   35576  154045       0    5046     184     393     629     640    3201  143519    5832   11710   18261   18287   89429  110261    5186   10372   16646   16646   61411       0      18       2       4       4       3       4       0       3       0       1       1       1       1       0      15       2       4       4       2       3       0       0    5101
 2012 205    53   45506   1.492   47391   1.569   45514   1.492   47396   1.569    258758       0  258758   11199   22472   35529   35565  153993       0    5012     182     390     625     635    3180  143466    5829   11705   18254   18280   89398  110261    5186   10372   16646   16646   61411       0      18       2       4       4       3       4       0       3       0       1       1       1       1       0      15       2       4       4       2       3       0       0    5187
 2012 206    54   45492   1.492   47378   1.569   45500   1.492   47383   1.569    258676       0  258676   11195   22465   35520   35555  153942       0    4981     181     388     621     632    3159  143417    5826   11701   18248   18274   89367  110261    5186   10372   16646   16646   61411       0      17       2       4       4       3       4       0       3       0       1       1       0       1       0      15       2       4       4       2       3       0       0    5269
 2012 207    55   45477   1.491   47365   1.568   45485   1.491   47369   1.569    258594       0  258594   11190   22459   35509   35545  153892       0    4949     179     385     617     628    3140  143366    5822   11697   18242   18268   89337  110261    5186   10372   16646   16646   61411       0      17       2       4       4       3       4       0       3       0       1       1       0       1       0      14       2       4       4       2       3       0       0    5351
 2012 208    56   45461   1.491   47351   1.568   45469   1.491   47356   1.568    258512       0  258512   11185   22452   35499   35534  153843       0    4918     178     383     614     624    3120  143316    5819   11693   18236   18262   89307  110261    5186   10372   16646   16646   61411       0      17       2       4       4       3       4       0       3       0       1       1       0       1       0      14       2       4       3       2       3       0       0    5433
 2012 209    57   45447   1.490   47338   1.567   45454   1.490   47342   1.568    258431       0  258431   11180   22445   35489   35524  153793       0    4888     176     381     610     620    3101  143266    5816   11689   18229   18255   89277  110261    5186   10372   16646   16646   61411       0      17       2       4       4       3       4       0       3       0       1       1       0       1       0      14       2       4       3       2       3       0       0    5514
 2012 210    58   45432   1.490   47324   1.567   45440   1.490   47329   1.567    258350       0  258350   11175   22439   35479   35514  153744       0    4858     174     378     606     617    3082  143215    5812   11685   18223   18249   89247  110260    5186   10372   16646   16646   61411       0      17       2       4       4       3       4       0       2       0       1       1       0       1       0      14       2       4       3       2       3       0       0    5595
 2012 211    59   45417   1.489   47311   1.567   45425   1.489   47315   1.567    258269       0  258269   11170   22432   35469   35504  153695       0    4828     173     376     603     613    3064  143164    5809   11680   18216   18243   89216  110260    5186   10372   16646   16646   61411       0      17       2       4       4       3       4       0       2       0       0       0       0       1       0      14       2       4       3       2       3       0       0    5676
 2012 212    60   45402   1.489   47297   1.566   45410   1.489   47301   1.566    258189       0  258189   11165   22425   35458   35494  153646       0    4799     172     374     599     609    3045  143113    5806   11676   18210   18236   89186  110260    5186   10372   16646   16646   61411       0      17       2       4       4       3       4       0       2       0       0       0       0       1       0      14       2       4       3       2       3       0       0    5756
 2012 213    61   45387   1.488   47283   1.566   45394   1.488   47287   1.566    258106       0  258106   11160   22418   35448   35483  153597       0    4769     170     371     595     606    3027  143061    5802   11672   18203   18230   89155  110260    5185   10372   16646   16646   61411       0      16       2       4       4       3       4       0       2       0       0       0       0       1       0      14       2       4       3       2       3       0       0    5839
 2012 214    62   45371   1.488   47269   1.565   45378   1.488   47273   1.565    258023       0  258023   11155   22411   35437   35473  153547       0    4739     169     369     592     602    3008  143007    5799   11667   18196   18223   89123  110260    5185   10372   16646   16646   61411       0      16       2       4       4       3       4       0       2       0       0       0       0       1       0      14       2       4       3       2       3       0       0    5922
 2012 215    63   45358   1.487   47255   1.565   45365   1.487   47259   1.565    257942       0  257942   11152   22404   35426   35462  153497       0    4711     168     366     588     598    2990  142956    5797   11662   18189   18216   89092  110259    5185   10372   16646   16646   61411       0      16       2       4       4       3       4       0       2       0       0       0       0       1       0      14       2       4       3       2       3       0       0    6003
 2012 216    64   45344   1.487   47241   1.564   45351   1.487   47245   1.564    257862       0  257862   11149   22397   35416   35452  153448       0    4683     167     364     585     595    2972  142904    5794   11658   18182   18209   89060  110259    5185   10371   16645   16646   61411       0      16       2       4       4       3       4       0       2       0       0       0       0       0       0      14       2       4       3       2       3       0       0    6083
 2012 217    65   45330   1.486   47227   1.564   45338   1.486   47231   1.564    257781       0  257781   11145   22390   35405   35442  153398       0    4654     166     362     581     591    2955  142851    5792   11653   18175   18203   89028  110259    5185   10371   16645   16646   61411       0      16       2       4       4       2       4       0       2       0       0       0       0       0       0      14       2       4       3       2       3       0       0    6164
 2012 218    66   45318   1.486   47214   1.563   45326   1.486   47218   1.564    257704       0  257704   11143   22384   35396   35432  153349       0    4628     165     360     578     588    2937  142801    5790   11649   18169   18196   88997  110259    5185   10371   16645   16646   61411       0      16       2       4       4       2       4       0       2       0       0       0       0       0       0      14       2       4       3       2       3       0       0    6242
 2012 219    67   45306   1.485   47202   1.563   45314   1.486   47206   1.563    257629       0  257629   11140   22378   35387   35422  153301       0    4602     164     358     575     585    2921  142752    5788   11645   18163   18190   88966  110259    5185   10371   16645   16645   61411       0      16       2       4       4       2       4       0       2       0       0       0       0       0       0      14       2       4       3       2       3       0       0    6316
 2012 220    68   45294   1.485   47189   1.563   45301   1.485   47194   1.563    257553       0  257553   11136   22372   35377   35413  153255       0    4577     163     356     572     581    2904  142702    5786   11641   18156   18184   88936  110258    5185   10371   16645   16645   61411       0      16       2       4       4       2       4       0       1       0       0       0       0       0       0      14       2       4       3       2       3       0       0    6392
 2012 221    69   45280   1.485   47176   1.562   45287   1.485   47180   1.562    257476       0  257476   11133   22365   35367   35403  153207       0    4551     163     354     569     578    2888  142651    5783   11636   18149   18177   88905  110258    5185   10371   16645   16645   61411       0      16       2       4       4       2       4       0       1       0       0       0       0       0       0      14       2       4       3       2       3       0       0    6469
 2012 222    70   45267   1.484   47162   1.562   45274   1.484   47167   1.562    257398       0  257398   11130   22358   35357   35393  153160       0    4526     162     351     566     575    2872  142599    5781   11632   18142   18170   88873  110258    5185   10371   16645   16645   61411       0      16       2       4       4       2       3       0       1       0       0       0       0       0       0      14       2       4       3       2       3       0       0    6547
 2012 223    71   45254   1.484   47149   1.561   45261   1.484   47153   1.561    257320       0  257320   11127   22352   35347   35383  153112       0    4500     161     349     562     572    2856  142546    5779   11627   18135   18164   88841  110258    5185   10371   16645   16645   61411       0      16       2       4       4       2       3       0       1       0       0       0       0       0       0      14       2       4       3       2       3       0       0    6625
 2012 224    72   45241   1.483   47135   1.561   45248   1.484   47140   1.561    257242       0  257242   11124   22345   35336   35373  153064       0    4475     160     347     559     568    2840  142494    5777   11623   18129   18157   88809  110258    5185   10371   16645   16645   61411       0      15       2       4       4       2       3       0       1       0       0       0       0       0       0      14       2       4       3       2       3       0       0    6703
 2012 225    73   45229   1.483   47123   1.560   45236   1.483   47127   1.561    257168       0  257168   11121   22339   35328   35364  153016       0    4451     159     346     557     566    2824  142444    5775   11619   18122   18150   88778  110257    5185   10371   16645   16645   61411       0      15       2       4       4       2       3       0       1       0       0       0       0       0       0      14       2       4       3       2       3       0       0    6777
 2012 226    74   45217   1.483   47111   1.560   45225   1.483   47115   1.560    257095       0  257095   11118   22333   35318   35354  152970       0    4428     159     344     554     563    2809  142394    5773   11615   18116   18144   88747  110257    5185   10371   16645   16645   61411       0      15       2       4       4       2       3       0       1       0       0       0       0       0       0      14       2       4       3       2       3       0       0    6850
 2012 227    75   45206   1.482   47099   1.560   45213   1.482   47103   1.560    257024       0  257024   11116   22328   35310   35345  152925       0    4406     158     342     551     560    2795  142346    5770   11611   18110   18138   88716  110257    5185   10371   16645   16645   61411       0      15       2       4       4       2       3       0       1       0       0       0       0       0       0      14       2       4       3       2       3       0       0    6921
 2012 228    76   45195   1.482   47088   1.559   45202   1.482   47092   1.559    256954       0  256954   11113   22322   35301   35337  152882       0    4384     157     340     549     557    2781  142298    5768   11607   18104   18132   88687  110257    5185   10371   16645   16645   61411       0      15       2       4       4       2       3       0       1       0       0       0       0       0       0      14       2       4       3       2       3       0       0    6991
 2012 229    77   45183   1.481   47076   1.559   45190   1.482   47080   1.559    256884       0  256884   11110   22316   35292   35328  152838       0    4363     157     339     546     555    2767  142250    5766   11603   18098   18126   88657  110256    5185   10371   16645   16645   61411       0      15       2       4       4       2       3       0       1       0       0       0       0       0       0      14       2       4       3       2       3       0       0    7061
 2012 230    78   45171   1.481   47064   1.558   45178   1.481   47068   1.559    256813       0  256813   11107   22310   35283   35319  152794       0    4341     156     337     543     552    2753  142201    5764   11599   18091   18120   88627  110256    5185   10371   16645   16645   61411       0      15       2       4       4       2       3       0       1       0       0       0       0       0       0      14       2       4       3       2       3       0       0    7132
 2012 231    79   45159   1.481   47051   1.558   45166   1.481   47055   1.558    256741       0  256741   11105   22304   35273   35310  152750       0    4319     155     335     541     549    2739  142151    5762   11594   18084   18113   88597  110256    5185   10371   16645   16645   61411       0      15       2       4       4       2       3       0       1       0       0       0       0       0       0      14       2       4       3       2       3       0       0    7204
 2012 232    80   45148   1.480   47039   1.558   45155   1.480   47043   1.558    256670       0  256670   11102   22298   35264   35300  152706       0    4298     155     333     538     546    2726  142101    5760   11590   18078   18107   88566  110256    5185   10371   16644   16645   61411       0      15       2       4       4       2       3       0       1       0       0       0       0       0       0      14       2       4       3       2       3       0       0    7275
 2012 233    81   45135   1.480   47026   1.557   45142   1.480   47030   1.557    256596       0  256596   11099   22292   35254   35291  152661       0    4276     154     332     535     544    2712  142050    5758   11586   18071   18100   88535  110255    5185   10371   16644   16645   61411       0      15       2       4       4       2       3       0       1       0       0       0       0       0       0      14       2       4       3       2       3       0       0    7349
 2012 234    82   45123   1.479   47013   1.557   45130   1.480   47017   1.557    256522       0  256522   11096   22285   35245   35281  152615       0    4255     153     330     532     541    2698  141998    5756   11581   18064   18093   88503  110255    5185   10371   16644   16645   61411       0      15       2       4       4       2       3       0       1       0       0       0       0       0       0      14       2       4       3       2       3       0       0    7423
 2012 235    83   45111   1.479   47001   1.556   45118   1.479   47004   1.556    256448       0  256448   11093   22279   35235   35272  152569       0    4233     153     328     530     538    2684  141945    5754   11577   18057   18087   88471  110255    5185   10371   16644   16645   61411       0      15       2       4       4       2       3       0       1       0       0       0       0       0       0      14       2       4       3       2       3       0       0    7497
 2012 236    84   45099   1.479   46988   1.556   45106   1.479   46992   1.556    256375       0  256375   11091   22274   35226   35262  152523       0    4212     152     327     527     536    2671  141893    5752   11573   18051   18080   88438  110255    5185   10371   16644   16644   61411       0      15       2       4       4       2       3       0       1       0       0       0       0       0       0      14       2       4       3       2       3       0       0    7570
 2012 237    85   45087   1.478   46976   1.555   45094   1.478   46979   1.556    256301       0  256301   11088   22267   35216   35253  152477       0    4191     151     325     525     533    2657  141841    5749   11568   18044   18073   88406  110254    5185   10371   16644   16644   61410       0      15       2       4       4       2       3       0       1       0       0       0       0       0       0      14       2       4       3       2       3       0       0    7644
 2012 238    86   45075   1.478   46963   1.555   45082   1.478   46967   1.555    256227       0  256227   11085   22261   35207   35243  152431       0    4170     151     323     522     530    2644  141788    5747   11564   18037   18067   88373  110254    5185   10370   16644   16644   61410       0      15       2       4       4       2       3       0       1       0       0       0       0       0       0      14       2       4       3       2       3       0       0    7718
 2012 239    87   45063   1.477   46951   1.555   45070   1.478   46955   1.555    256155       0  256155   11082   22255   35198   35234  152386       0    4150     150     322     520     528    2631  141736    5745   11560   18030   18060   88341  110254    5185   10370   16644   16644   61410       0      15       2       4       4       2       3       0       1       0       0       0       0       0       0      14       2       4       3       2       3       0       0    7790
 2012 240    88   45052   1.477   46939   1.554   45059   1.477   46943   1.554    256086       0  256086   11079   22250   35189   35226  152342       0    4131     149     320     518     525    2618  141687    5743   11555   18024   18054   88310  110254    5185   10370   16644   16644   61410       0      15       2       4       4       2       3       0       1       0       0       0       0       0       0      14       2       4       3       2       3       0       0    7859
 2012 241    89   45040   1.477   46928   1.554   45047   1.477   46931   1.554    256016       0  256016   11077   22244   35180   35217  152299       0    4112     149     319     515     523    2606  141636    5741   11551   18018   18047   88279  110253    5185   10370   16644   16644   61410       0      15       2       4       4       2       3       0       0       0       0       0       0       0       0      14       2       4       3       2       3       0       0    7929
 2012 242    90   45028   1.476   46915   1.553   45035   1.477   46919   1.554    255946       0  255946   11074   22238   35171   35208  152256       0    4093     148     317     513     521    2594  141585    5739   11546   18011   18041   88248  110253    5185   10370   16644   16644   61410       0      15       2       4       4       2       3       0       0       0       0       0       0       0       0      14       2       4       3       2       3       0       0    7999
 2012 243    91   45016   1.476   46903   1.553   45023   1.476   46907   1.553    255875       0  255875   11071   22232   35162   35199  152212       0    4074     148     316     510     518    2582  141533    5737   11542   18004   18034   88217  110253    5185   10370   16644   16644   61410       0      15       2       4       4       2       3       0       0       0       0       0       0       0       0      14       2       4       3       2       3       0       0    8071
 2012 244    92   45004   1.476   46890   1.553   45011   1.476   46894   1.553    255802       0  255802   11068   22225   35152   35189  152168       0    4055     147     314     508     516    2570  141480    5735   11537   17997   18027   88184  110253    5185   10370   16644   16644   61410       0      15       2       4       4       2       3       0       0       0       0       0       0       0       0      14       2       4       3       2       3       0       0    8143
 2012 245    93   44993   1.475   46878   1.552   44999   1.475   46882   1.552    255730       0  255730   11066   22219   35143   35180  152123       0    4036     147     313     506     513    2558  141427    5732   11533   17990   18020   88152  110252    5185   10370   16644   16644   61410       0      15       2       4       3       2       3       0       0       0       0       0       0       0       0      14       2       4       3       2       3       0       0    8215
 2012 246    94   44981   1.475   46866   1.552   44988   1.475   46870   1.552    255660       0  255660   11063   22214   35134   35171  152078       0    4018     146     311     504     511    2546  141375    5730   11529   17983   18014   88119  110252    5185   10370   16644   16644   61410       0      15       2       4       3       2       3       0       0       0       0       0       0       0       0      14       2       4       3       2       3       0       0    8285
 2012 247    95   44971   1.474   46854   1.551   44977   1.475   46858   1.552    255591       0  255591   11060   22208   35125   35162  152035       0    4000     145     310     502     509    2535  141325    5728   11525   17977   18007   88088  110252    5185   10370   16643   16644   61410       0      14       2       4       3       2       3       0       0       0       0       0       0       0       0      14       2       3       3       2       3       0       0    8354
 2012 248    96   44960   1.474   46844   1.551   44967   1.474   46847   1.551    255526       0  255526   11058   22203   35117   35154  151993       0    3984     145     309     500     507    2524  141276    5726   11521   17971   18001   88057  110251    5185   10370   16643   16644   61410       0      14       2       4       3       2       3       0       0       0       0       0       0       0       0      14       2       3       3       2       3       0       0    8419
 2012 249    97   44950   1.474   46833   1.551   44956   1.474   46837   1.551    255461       0  255461   11055   22198   35109   35146  151952       0    3967     144     308     498     505    2513  141228    5724   11517   17965   17995   88027  110251    5185   10370   16643   16644   61410       0      14       2       4       3       2       3       0       0       0       0       0       0       0       0      14       2       3       3       2       3       0       0    8484
 2012 250    98   44939   1.473   46823   1.550   44946   1.474   46826   1.551    255399       0  255399   11053   22193   35102   35138  151913       0    3952     144     306     496     503    2503  141181    5722   11513   17959   17989   87998  110251    5185   10370   16643   16644   61410       0      14       2       4       3       2       3       0       0       0       0       0       0       0       0      14       2       3       3       2       3       0       0    8546
 2012 251    99   44929   1.473   46812   1.550   44936   1.473   46816   1.550    255339       0  255339   11050   22188   35094   35130  151877       0    3937     143     305     494     501    2494  141137    5720   11509   17953   17984   87971  110251    5185   10370   16643   16643   61409       0      14       2       4       3       2       3       0       0       0       0       0       0       0       0      14       2       3       3       2       3       0       0    8606
 2012 252   100   44919   1.473   46802   1.550   44925   1.473   46806   1.550    255279       0  255279   11048   22182   35086   35123  151840       0    3923     143     304     492     499    2484  141092    5718   11505   17947   17978   87943  110250    5185   10370   16643   16643   61409       0      14       2       4       3       2       3       0       0       0       0       0       0       0       0      14       2       3       3       2       3       0       0    8666
 2012 253   101   44907   1.472   46790   1.549   44914   1.473   46794   1.549    255214       0  255214   11045   22176   35077   35114  151801       0    3907     142     303     490     497    2475  141043    5716   11500   17940   17971   87914  110250    5185   10370   16643   16643   61409       0      14       2       4       3       2       3       0       0       0       0       0       0       0       0      14       2       3       3       2       3       0       0    8731
 2012 254   102   44895   1.472   46779   1.549   44902   1.472   46782   1.549    255147       0  255147   11042   22170   35068   35105  151761       0    3891     142     301     488     495    2465  140992    5714   11496   17933   17965   87884  110250    5184   10370   16643   16643   61409       0      14       2       4       3       2       3       0       0       0       0       0       0       0       0      14       2       3       3       2       3       0       0    8798
 2012 255   103   44884   1.472   46766   1.549   44890   1.472   46770   1.549    255078       0  255078   11040   22164   35059   35096  151719       0    3874     141     300     486     493    2454  140940    5712   11491   17926   17958   87852  110249    5184   10370   16643   16643   61409       0      14       2       4       3       2       3       0       0       0       0       0       0       0       0      14       2       3       3       2       3       0       0    8867
 2012 256   104   44872   1.471   46754   1.548   44878   1.471   46758   1.548    255007       0  255007   11037   22158   35049   35087  151675       0    3858     141     298     484     491    2444  140886    5710   11487   17919   17951   87819  110249    5184   10370   16643   16643   61409       0      14       2       4       3       2       3       0       0       0       0       0       0       0       0      14       2       3       3       2       3       0       0    8938
 2012 257   105   44860   1.471   46741   1.548   44866   1.471   46745   1.548    254935       0  254934   11034   22152   35040   35078  151631       0    3841     140     297     482     489    2433  140831    5708   11482   17912   17944   87786  110249    5184   10370   16643   16643   61409       0      14       2       4       3       2       3       0       0       0       0       0       0       0       0      14       2       3       3       2       3       0       0    9011
 2012 258   106   44847   1.470   46728   1.547   44854   1.471   46732   1.547    254862       0  254862   11032   22146   35030   35068  151586       0    3824     140     296     480     487    2422  140775    5705   11477   17904   17936   87752  110248    5184   10370   16643   16643   61409       0      14       2       4       3       2       3       0       0       0       0       0       0       0       0      14       2       3       3       2       3       0       0    9084
 2012 259   107   44835   1.470   46716   1.547   44841   1.470   46719   1.547    254788       0  254787   11029   22139   35021   35058  151541       0    3807     139     294     478     484    2412  140718    5703   11472   17897   17929   87717  110248    5184   10369   16643   16643   61409       0      14       2       4       3       2       3       0       0       0       0       0       0       0       0      14       2       3       3       2       3       0       0    9158
 2012 260   108   44822   1.470   46703   1.546   44829   1.470   46706   1.547    254713       0  254713   11026   22133   35011   35049  151495       0    3790     139     293     476     482    2401  140661    5701   11467   17889   17921   87682  110248    5184   10369   16643   16643   61409       0      14       2       4       3       2       3       0       0       0       0       0       0       0       0      14       2       3       3       2       3       0       0    9232
 2012 261   109   44809   1.469   46690   1.546   44816   1.469   46693   1.546    254638       0  254638   11022   22126   35001   35039  151449       0    3774     138     292     473     480    2390  140603    5698   11462   17882   17914   87647  110247    5184   10369   16642   16643   61408       0      14       2       4       3       2       3       0       0       0       0       0       0       0       0      14       2       3       3       2       3       0       0    9307
 2012 262   110   44797   1.469   46677   1.546   44803   1.469   46681   1.546    254565       1  254564   11019   22120   34991   35030  151404       0    3757     138     290     471     478    2380  140545    5696   11457   17874   17907   87612  110247    5184   10369   16642   16643   61408       1      14       2       4       3       2       3       0       0       0       0       0       0       0       0      14       2       3       3       2       3       0       0    9381
 2012 263   111   44785   1.468   46664   1.545   44791   1.469   46668   1.545    254492       1  254491   11017   22114   34982   35020  151359       0    3742     137     289     469     476    2370  140489    5693   11452   17867   17899   87578  110247    5184   10369   16642   16643   61408       1      14       2       3       3       2       3       1       0       0       0       0       0       0       0      14       2       3       3       2       3       0       0    9454
 2012 264   112   44774   1.468   46652   1.545   44780   1.468   46656   1.545    254421       1  254420   11014   22109   34973   35011  151313       0    3726     137     288     468     474    2360  140433    5691   11448   17860   17892   87543  110246    5184   10369   16642   16643   61408       1      14       2       3       3       2       3       1       0       0       0       0       0       0       0      14       2       3       3       2       3       0       0    9525
 2012 265   113   44763   1.468   46640   1.544   44770   1.468   46644   1.545    254352       1  254351   11012   22103   34964   35002  151269       0    3711     136     287     466     472    2350  140379    5689   11444   17853   17885   87508  110246    5184   10369   16642   16642   61408       1      14       2       3       3       2       3       1       0       0       0       0       0       0       0      14       2       3       3       2       3       0       0    9594
 2012 266   114   44753   1.467   46629   1.544   44759   1.468   46633   1.544    254285       2  254283   11009   22098   34956   34993  151226       0    3697     136     286     464     470    2340  140326    5687   11440   17846   17878   87475  110246    5184   10369   16642   16642   61408       2      14       2       3       3       2       3       1       0       0       0       0       0       0       0      14       2       3       3       2       3       0       0    9662
 2012 267   115   44742   1.467   46618   1.544   44748   1.467   46621   1.544    254218       2  254216   11007   22093   34947   34985  151184       0    3683     135     285     463     469    2331  140273    5685   11435   17839   17872   87442  110245    5184   10369   16642   16642   61408       2      14       2       3       3       2       3       2       0       0       0       0       0       0       0      14       2       3       3       2       3       0       0    9729
 2012 268   116   44731   1.467   46606   1.543   44738   1.467   46610   1.543    254152       3  254149   11004   22087   34939   34976  151142       0    3669     135     284     461     467    2322  140221    5683   11431   17833   17865   87409  110245    5184   10369   16642   16642   61408       3      14       2       3       3       2       3       2       0       0       0       0       0       0       0      14       2       3       3       2       3       0       0    9796
 2012 269   117   44721   1.466   46595   1.543   44727   1.466   46599   1.543    254085       3  254082   11002   22082   34930   34968  151100       0    3656     135     283     459     465    2313  140168    5681   11427   17826   17858   87376  110245    5184   10369   16642   16642   61408       3      14       2       3       3       2       3       3       0       0       0       0       0       0       1      14       2       3       3       2       3       0       0    9863
 2012 270   118   44710   1.466   46584   1.543   44716   1.466   46587   1.543    254019       4  254015   10999   22077   34922   34959  151059       0    3642     134     282     458     464    2305  140115    5679   11422   17819   17851   87343  110244    5184   10369   16642   16642   61407       4      14       2       3       3       2       3       3       0       0       0       0       0       0       1      14       2       3       3       2       3       0       0    9930
 2012 271   119   44699   1.466   46572   1.542   44705   1.466   46576   1.542    253952       5  253947   10996   22071   34913   34950  151016       0    3628     134     281     456     462    2296  140061    5677   11418   17812   17844   87310  110244    5184   10369   16642   16642   61407       5      14       2       3       3       2       3       4       0       0       0       0       0       0       1      14       2       3       3       2       3       0       0    9998
 2012 272   120   44688   1.465   46560   1.542   44694   1.465   46564   1.542    253885       6  253879   10994   22065   34904   34942  150974       0    3615     133     280     454     460    2287  140007    5675   11413   17805   17837   87277  110244    5184   10369   16642   16642   61407       5      14       2       3       3       2       3       5       0       0       0       0       0       0       1      14       2       3       3       2       3       0       0   10066
 2012 273   121   44676   1.465   46548   1.541   44683   1.465   46552   1.541    253817       7  253810   10991   22059   34895   34933  150931       0    3601     133     279     453     458    2279  139951    5672   11409   17798   17830   87243  110243    5184   10369   16642   16642   61407       6      14       2       3       3       2       3       5       0       0       0       0       0       0       1      14       2       3       3       2       3       0       1   10135
 2012 274   122   44665   1.464   46536   1.541   44671   1.465   46540   1.541    253749       8  253740   10989   22054   34886   34924  150888       0    3588     133     278     451     457    2270  139896    5670   11404   17790   17823   87208  110243    5184   10369   16641   16642   61407       8      14       2       3       3       2       3       7       0       0       0       0       0       0       1      14       2       3       3       2       3       0       1   10205
 2012 275   123   44654   1.464   46524   1.541   44660   1.464   46528   1.541    253682      10  253671   10986   22048   34877   34915  150845       1    3575     132     277     449     455    2261  139840    5668   11399   17783   17816   87174  110243    5184   10369   16641   16642   61407      10      14       2       3       3       2       3       8       0       0       0       0       0       0       2      14       2       3       3       2       3       0       1   10274
 2012 276   124   44642   1.464   46512   1.540   44649   1.464   46516   1.540    253614      13  253601   10983   22042   34868   34906  150802       1    3561     132     276     448     453    2253  139784    5666   11394   17775   17808   87140  110242    5184   10369   16641   16642   61407      12      14       2       3       3       2       3      10       0       0       0       0       0       0       2      14       2       3       3       2       3       0       1   10344
 2012 277   125   44630   1.463   46499   1.540   44637   1.464   46503   1.540    253545      16  253529   10981   22036   34858   34896  150758       1    3548     131     274     446     452    2244  139726    5664   11389   17768   17801   87104  110242    5184   10368   16641   16642   61407      15      14       2       3       3       2       3      12       0       0       0       0       0       0       2      14       2       3       3       2       3       0       1   10416
 2012 278   126   44619   1.463   46487   1.539   44625   1.463   46491   1.539    253477      19  253458   10978   22030   34849   34887  150714       1    3535     131     273     444     450    2236  139668    5661   11384   17760   17793   87069  110241    5184   10368   16641   16641   61406      18      14       2       3       3       2       3      15       0       0       0       0       0       0       3      14       2       3       3       2       3       0       1   10487
 2012 279   127   44608   1.463   46475   1.539   44614   1.463   46478   1.539    253409      23  253386   10976   22024   34840   34878  150670       1    3521     131     272     443     448    2227  139610    5659   11380   17753   17786   87033  110241    5184   10368   16641   16641   61406      21      14       2       3       3       2       3      18       0       0       0       0       0       0       4      14       2       3       3       2       3       0       2   10559
 2012 280   128   44596   1.462   46462   1.538   44602   1.462   46465   1.539    253340      27  253313   10973   22018   34830   34868  150625       2    3508     130     271     441     447    2219  139551    5657   11374   17745   17778   86997  110241    5184   10368   16641   16641   61406      25      14       2       3       3       2       3      21       0       0       0       0       0       0       4      14       2       3       3       2       3       0       2   10632
 2012 281   129   44584   1.462   46449   1.538   44590   1.462   46453   1.538    253271      32  253239   10970   22011   34820   34858  150579       2    3495     130     270     439     445    2210  139491    5654   11369   17737   17770   86960  110240    5184   10368   16641   16641   61406      29      14       2       3       3       2       3      24       0       0       0       0       0       0       5      14       2       3       3       2       3       0       3   10706
 2012 282   130   44572   1.461   46436   1.538   44578   1.462   46440   1.538    253202      36  253166   10967   22005   34811   34849  150534       3    3482     129     269     438     443    2202  139430    5652   11364   17729   17762   86923  110240    5184   10368   16641   16641   61406      34      14       2       3       3       2       3      28       0       0       0       0       0       0       6      14       2       3       3       2       3       0       3   10780
 2012 283   131   44560   1.461   46423   1.537   44566   1.461   46427   1.537    253134      42  253092   10964   21999   34801   34839  150489       3    3469     129     268     436     442    2194  139370    5650   11359   17721   17755   86887  110239    5184   10368   16641   16641   61406      39      14       2       3       3       2       3      32       0       0       0       0       0       0       7      14       2       3       3       2       3       0       4   10853
 2012 284   132   44548   1.461   46411   1.537   44554   1.461   46414   1.537    253068      47  253020   10961   21992   34792   34830  150446       4    3456     128     267     435     440    2186  139311    5647   11354   17713   17747   86851  110239    5184   10368   16641   16641   61406      44      14       2       3       3       2       3      36       0       0       0       0       0       0       7      14       2       3       3       2       3       0       5   10925
 2012 285   133   44536   1.460   46399   1.536   44543   1.460   46403   1.537    253004      53  252951   10958   21986   34783   34821  150403       5    3444     128     266     433     439    2178  139254    5644   11348   17706   17740   86816  110238    5184   10368   16641   16641   61405      49      14       2       3       3       2       3      40       0       0       0       0       0       0       8      14       2       3       3       2       3       0       6   10994
 2012 286   134   44526   1.460   46388   1.536   44532   1.460   46392   1.536    252945      60  252885   10955   21980   34774   34813  150362       5    3433     128     265     432     437    2171  139200    5642   11344   17699   17733   86783  110238    5184   10368   16640   16641   61405      54      14       2       3       3       2       3      45       0       0       0       0       0       0       9      14       2       3       3       2       3       0       7   11060
 2012 287   135   44515   1.460   46378   1.536   44521   1.460   46381   1.536    252887      66  252821   10952   21974   34767   34805  150323       6    3423     127     264     431     436    2164  139147    5639   11339   17692   17726   86750  110238    5184   10368   16640   16641   61405      60      14       2       3       3       2       3      50       0       0       0       0       0       0      10      14       2       3       3       2       3       0       8   11124
 2012 288   136   44505   1.459   46368   1.535   44511   1.459   46372   1.535    252833      74  252759   10949   21969   34759   34798  150284       7    3412     127     264     430     435    2158  139096    5637   11334   17686   17720   86718  110237    5184   10368   16640   16641   61405      66      14       2       3       3       2       3      55       0       0       0       0       0       0      12      14       2       3       3       2       3       0      10   11186
 2012 289   137   44495   1.459   46359   1.535   44502   1.459   46363   1.535    252781      81  252700   10946   21963   34753   34791  150247       8    3403     126     263     429     434    2151  139047    5634   11329   17681   17715   86688  110237    5184   10368   16640   16641   61405      73      14       2       3       3       2       3      60       0       0       0       0       0       0      13      14       2       3       3       2       3       0      11   11245
 2012 290   138   44486   1.459   46351   1.535   44493   1.459   46354   1.535    252733      89  252644   10943   21958   34747   34785  150211       9    3393     126     262     428     433    2145  139000    5632   11325   17675   17710   86658  110237    5183   10368   16640   16641   61405      80      14       2       3       3       2       3      66       0       0       0       0       0       0      14      14       2       3       3       2       3       0      12   11302
 2012 291   139   44478   1.458   46343   1.535   44485   1.459   46347   1.535    252687      97  252589   10941   21953   34741   34779  150175      10    3385     126     261     427     432    2139  138955    5630   11321   17671   17705   86628  110236    5183   10368   16640   16640   61405      87      14       2       3       3       2       3      72       0       0       0       0       0       0      15      14       2       3       3       2       3       0      14   11356
 2012 292   140   44471   1.458   46336   1.534   44478   1.458   46339   1.534    252644     106  252538   10939   21949   34736   34774  150141      12    3376     125     261     426     431    2133  138912    5628   11317   17666   17700   86600  110236    5183   10368   16640   16640   61405      95      14       2       3       3       2       3      78       0       0       0       0       0       0      17      14       2       3       3       2       3       0      15   11408
 2012 293   141   44464   1.458   46329   1.534   44471   1.458   46333   1.534    252602     115  252487   10936   21945   34731   34769  150107      13    3368     125     260     425     430    2128  138870    5625   11314   17662   17696   86572  110236    5183   10368   16640   16640   61405     102      14       2       3       3       2       3      84       0       0       0       0       0       0      18      14       2       3       3       2       3       0      17   11458
 2012 294   142   44457   1.458   46323   1.534   44464   1.458   46327   1.534    252562     124  252438   10933   21941   34726   34764  150074      15    3360     125     259     424     429    2123  138828    5623   11311   17658   17692   86544  110236    5183   10368   16640   16640   61404     110      14       2       3       3       2       3      90       0       0       0       0       0       0      20      14       2       3       3       2       3       0      19   11507
 2012 295   143   44451   1.457   46317   1.534   44457   1.458   46321   1.534    252523     133  252390   10930   21937   34722   34759  150042      16    3353     124     259     424     429    2117  138788    5620   11307   17655   17688   86518  110235    5183   10367   16640   16640   61404     117      14       2       3       3       2       3      96       0       0       0       0       0       0      21      14       2       3       3       2       3       0      22   11555
 2012 296   144   44444   1.457   46312   1.534   44450   1.457   46315   1.534    252487     143  252344   10927   21932   34718   34755  150012      18    3346     124     258     423     428    2112  138750    5618   11303   17651   17685   86492  110235    5183   10367   16640   16640   61404     125      14       2       3       3       2       3     102       0       0       0       0       0       0      23      14       2       3       3       2       3       0      24   11601
 2012 297   145   44437   1.457   46307   1.533   44443   1.457   46310   1.533    252453     153  252300   10924   21928   34714   34752  149983      20    3339     124     258     423     427    2108  138712    5615   11299   17648   17682   86468  110235    5183   10367   16640   16640   61404     132      14       2       3       3       2       3     108       0       0       0       0       0       0      25      14       2       3       3       2       3       0      27   11646
 2012 298   146   44431   1.457   46302   1.533   44437   1.457   46306   1.533    252420     162  252258   10921   21923   34710   34748  149955      22    3333     123     257     422     427    2103  138677    5613   11296   17645   17679   86444  110235    5183   10367   16640   16640   61404     140      14       2       3       3       2       3     114       0       0       0       0       0       0      26      14       2       3       3       2       3       0      30   11688
 2012 299   147   44426   1.457   46298   1.533   44432   1.457   46301   1.533    252392     173  252219   10919   21920   34707   34745  149928      24    3327     123     257     422     426    2099  138644    5611   11293   17642   17676   86422  110234    5183   10367   16640   16640   61404     149      14       2       3       3       2       3     121       0       0       0       0       0       0      28      14       2       3       3       2       3       0      32   11727
 2012 300   148   44422   1.456   46293   1.533   44428   1.457   46297   1.533    252366     184  252183   10918   21918   34704   34741  149902      25    3321     123     256     421     426    2095  138614    5610   11291   17640   17673   86400  110234    5183   10367   16640   16640   61404     159      14       2       3       3       2       3     129       0       0       0       0       0       0      30      14       2       3       3       2       3       0      34   11763
 2012 301   149   44418   1.456   46289   1.533   44425   1.457   46293   1.533    252344     195  252149   10916   21915   34701   34738  149878      26    3316     123     256     421     425    2091  138586    5609   11289   17637   17671   86380  110234    5183   10367   16640   16640   61404     169      14       2       3       3       2       3     137       0       0       0       0       0       0      31      14       2       3       3       2       3       0      36   11797
 2012 302   150   44416   1.456   46286   1.533   44422   1.456   46289   1.533    252326     206  252120   10915   21913   34698   34736  149857      27    3312     123     256     420     425    2088  138560    5608   11287   17635   17668   86362  110234    5183   10367   16640   16640   61404     179      14       2       3       3       2       3     146       0       0       0       0       0       0      33      14       2       3       3       2       3       0      38   11827
 2012 303   151   44413   1.456   46282   1.533   44419   1.456   46286   1.533    252309     217  252092   10913   21912   34696   34733  149838      29    3308     122     255     420     425    2085  138537    5606   11286   17633   17666   86346  110234    5183   10367   16640   16640   61404     188      14       2       3       3       2       3     153       0       0       0       0       0       0      35      14       2       3       3       2       3       0      40   11854
 2012 304   152   44411   1.456   46279   1.532   44417   1.456   46283   1.533    252295     228  252067   10912   21910   34694   34731  149821      31    3304     122     255     420     424    2083  138516    5605   11285   17631   17664   86332  110234    5183   10367   16640   16640   61404     197      14       2       3       3       2       3     161       0       0       0       0       0       0      37      14       2       3       3       2       3       0      43   11879
 2012 305   153   44409   1.456   46277   1.532   44416   1.456   46280   1.532    252282     238  252044   10909   21909   34692   34729  149805      34    3300     122     255     419     424    2080  138496    5602   11284   17629   17663   86318  110233    5183   10367   16640   16640   61404     204      14       2       3       3       2       3     166       0       0       0       0       0       0      38      14       2       3       3       2       3       0      47   11903
 2012 306   154   44407   1.456   46274   1.532   44414   1.456   46278   1.532    252270     249  252022   10907   21907   34690   34727  149790      36    3297     122     255     419     424    2078  138477    5601   11282   17628   17661   86306  110233    5183   10367   16640   16640   61404     213      14       2       3       3       2       3     172       0       0       0       0       0       0      40      14       2       3       3       2       3       0      50   11925
 2012 307   155   44406   1.456   46272   1.532   44412   1.456   46276   1.532    252261     259  252001   10905   21906   34688   34725  149776      38    3294     121     255     419     423    2076  138460    5599   11281   17626   17660   86294  110233    5183   10367   16640   16640   61403     221      14       2       3       3       2       3     179       0       0       0       0       0       0      42      14       2       3       3       2       3       0      53   11945
 2012 308   156   44404   1.456   46270   1.532   44411   1.456   46274   1.532    252255     272  251983   10904   21905   34687   34724  149763      39    3292     121     254     419     423    2074  138445    5598   11280   17625   17659   86283  110233    5183   10367   16640   16640   61403     232      14       2       3       3       2       3     188       0       0       0       0       0       0      44      14       2       3       3       2       3       0      55   11964
 2012 309   157   44403   1.456   46269   1.532   44409   1.456   46272   1.532    252251     285  251966   10903   21904   34686   34723  149751      40    3289     121     254     419     423    2072  138430    5597   11279   17624   17657   86272  110233    5183   10367   16640   16640   61403     244      14       2       3       3       2       3     198       0       0       0       0       0       0      46      14       2       3       3       2       3       0      57   11981
 2012 310   158   44402   1.456   46267   1.532   44408   1.456   46270   1.532    252249     299  251950   10903   21903   34684   34721  149739      41    3287     121     254     418     423    2070  138417    5597   11278   17623   17656   86262  110233    5183   10367   16640   16640   61403     257      14       2       3       3       2       3     209       0       0       0       0       0       0      48      14       2       3       3       2       3       0      58   11997
 2012 311   159   44401   1.456   46265   1.532   44408   1.456   46269   1.532    252249     314  251935   10902   21902   34683   34720  149728      42    3285     121     254     418     423    2068  138404    5596   11278   17622   17655   86253  110233    5183   10367   16640   16640   61403     271      14       2       3       3       2       3     221       0       0       0       0       0       0      51      14       2       3       3       2       3       0      59   12012
 2012 312   160   44401   1.456   46264   1.532   44407   1.456   46268   1.532    252250     329  251921   10901   21902   34682   34719  149717      43    3283     121     254     418     423    2067  138392    5596   11277   17621   17655   86244  110233    5183   10367   16640   16640   61403     286      14       2       3       3       2       3     233       0       0       0       0       0       0      53      14       2       3       3       2       3       0      61   12026
 2012 313   161   44400   1.456   46263   1.532   44406   1.456   46266   1.532    252254     345  251908   10901   21901   34681   34718  149707      44    3281     121     254     418     422    2065  138381    5595   11277   17621   17654   86235  110233    5183   10367   16640   16640   61403     301      14       2       3       3       2       3     246       0       0       0       0       0       0      55      14       2       3       3       2       3       0      62   12039
 2012 314   162   44400   1.456   46262   1.532   44406   1.456   46265   1.532    252258     362  251896   10900   21901   34681   34717  149697      45    3279     121     254     418     422    2064  138371    5595   11276   17620   17653   86227  110233    5183   10367   16640   16640   61403     316      14       2       3       3       2       3     259       0       0       0       0       0       0      58      14       2       3       3       2       3       0      63   12051
 2012 315   163   44400   1.456   46261   1.532   44406   1.456   46264   1.532    252262     378  251884   10899   21900   34680   34716  149688      47    3277     121     254     418     422    2063  138361    5594   11276   17619   17652   86219  110233    5183   10367   16640   16640   61403     331      14       2       3       3       2       3     271       0       0       0       0       0       0      60      14       2       3       3       2       3       0      65   12063
 2012 316   164   44401   1.456   46260   1.532   44407   1.456   46263   1.532    252266     393  251872   10898   21900   34679   34716  149679      49    3275     121     254     418     422    2061  138351    5593   11276   17619   17652   86212  110233    5183   10367   16640   16640   61403     345      14       2       3       3       2       3     282       0       0       0       0       0       0      63      14       2       3       3       2       3       0      68   12075
 2012 317   165   44402   1.456   46259   1.532   44408   1.456   46262   1.532    252270     409  251861   10897   21900   34679   34715  149670      51    3274     120     254     418     422    2060  138341    5592   11276   17618   17651   86204  110233    5183   10367   16640   16640   61403     358      14       2       3       3       2       3     292       0       0       0       0       0       0      66      14       2       3       3       2       3       0      72   12087
 2012 318   166   44402   1.456   46258   1.532   44409   1.456   46262   1.532    252276     426  251850   10896   21900   34678   34714  149662      54    3272     120     254     418     422    2059  138332    5591   11275   17618   17651   86197  110232    5183   10367   16640   16640   61403     372      14       2       3       3       2       3     304       0       0       0       0       0       0      68      14       2       3       3       2       3       0      75   12097
 2012 319   167   44403   1.456   46257   1.532   44409   1.456   46261   1.532    252263     423  251840   10895   21899   34678   34714  149654      55    3271     120     254     417     422    2058  138323    5590   11275   17617   17650   86190  110232    5183   10367   16639   16640   61403     368      14       2       3       3       2       3     300       0       0       0       0       0       0      68      14       2       3       3       2       3       0      77   12108
 2012 320   168   44403   1.456   46257   1.532   44410   1.456   46260   1.532    252252     421  251831   10895   21899   34677   34713  149646      57    3270     120     254     417     422    2057  138315    5590   11275   17617   17650   86184  110232    5183   10367   16639   16640   61403     364      14       2       3       3       2       3     297       0       0       0       0       0       0      68      14       2       3       3       2       3       0      79   12117
