*SOIL-PLANT-ATMOSPHERE MODULE OUTPUT FILE

*DSSAT Cropping System Model Ver. 4.8.2.000 -release  FEB 18, 2025 01:32:02

*RUN   1        : F1 NE 4                   RICER048 CRDA1201    1
 MODEL          : RICER048 - Rice
 EXPERIMENT     : CRDA1201 WH ESSAI VARIETE DAROU PAKA 2012
 DATA PATH      :
 TREATMENT  1   : F1 NE 4                   RICER048
  
!                                                                                                                                                                                        Soil evaporation (mm/d) by soil depth (cm):
!                                                                                                                                                                                        0-5    5-15   15-20   20-47   47-73  73-100
@YEAR DOY   DAS   SRAA  TMAXA  TMINA    REFA    EOAA    EOPA    EOSA    ETAA    EPAA    ESAA    EFAA    EMAA    EOAC    ETAC    EPAC    ESAC    EFAC    EMAC    KCAA    KBSA    KEAA    ES1D    ES2D    ES3D    ES4D    ES5D    ES6D   TRWUD   TWUPD
 2012 153     1  16.20  36.30  22.60 -99.000   5.156   0.000   5.156   2.689   0.000   2.689   0.000   0.000    5.16    2.69    0.00    2.69    0.00    0.00 -99.000 -99.000 -99.000   0.772   0.507   0.174   0.574   0.369   0.294   0.000   0.000
 2012 154     2  24.10  37.30  24.30 -99.000   8.318   0.000   8.318   2.589   0.000   2.589   0.000   0.000   13.47    5.28    0.00    5.28    0.00    0.00 -99.000 -99.000 -99.000   0.702   0.491   0.169   0.568   0.367   0.292   0.000   0.000
 2012 155     3  23.30  38.20  24.80 -99.000   8.271   0.000   8.271   0.436   0.000   0.436   0.000   0.000   21.75    5.71    0.00    5.71    0.00    0.00 -99.000 -99.000 -99.000   0.367   0.045   0.008   0.011   0.003   0.002   0.000   0.000
 2012 156     4  22.70  37.40  26.30 -99.000   7.778   0.000   7.778   0.405   0.000   0.405   0.000   0.000   29.52    6.12    0.00    6.12    0.00    0.00 -99.000 -99.000 -99.000   0.336   0.045   0.008   0.011   0.003   0.002   0.000   0.000
 2012 157     5  23.30  39.40  24.90 -99.000   8.686   0.000   8.686   0.377   0.000   0.377   0.000   0.000   38.21    6.50    0.00    6.50    0.00    0.00 -99.000 -99.000 -99.000   0.308   0.045   0.008   0.011   0.003   0.002   0.000   0.000
 2012 158     6  23.40  38.80  25.80 -99.000   8.488   0.000   8.488   0.351   0.000   0.351   0.000   0.000   46.70    6.85    0.00    6.85    0.00    0.00 -99.000 -99.000 -99.000   0.283   0.045   0.008   0.011   0.003   0.002   0.000   0.000
 2012 159     7  24.30  39.50  26.70 -99.000   9.130   0.000   9.130   0.348   0.000   0.348   0.000   0.000   55.83    7.20    0.00    7.20    0.00    0.00 -99.000 -99.000 -99.000   0.280   0.044   0.008   0.011   0.003   0.002   0.000   0.000
 2012 160     8  22.10  39.50  26.80 -99.000   8.334   0.000   8.334   0.345   0.000   0.345   0.000   0.000   64.16    7.54    0.00    7.54    0.00    0.00 -99.000 -99.000 -99.000   0.278   0.044   0.008   0.011   0.003   0.002   0.000   0.000
 2012 161     9  21.10  37.70  27.90 -99.000   7.313   0.000   7.313   0.322   0.000   0.322   0.000   0.000   71.47    7.86    0.00    7.86    0.00    0.00 -99.000 -99.000 -99.000   0.255   0.044   0.008   0.011   0.003   0.002   0.000   0.000
 2012 162    10  22.10  38.00  28.00 -99.000   7.752   0.000   7.752   2.444   0.000   2.444   0.000   0.000   79.23   10.31    0.00   10.31    0.00    0.00 -99.000 -99.000 -99.000   0.593   0.474   0.166   0.559   0.362   0.290   0.000   0.000
 2012 163    11  24.20  38.40  21.60 -99.000   8.595   0.000   8.595   2.503   0.000   2.503   0.000   0.000   87.82   12.81    0.00   12.81    0.00    0.00 -99.000 -99.000 -99.000   0.666   0.478   0.164   0.552   0.356   0.287   0.000   0.000
 2012 164    12  25.00  38.70  25.40 -99.000   9.101   0.000   9.101   0.416   0.000   0.416   0.000   0.000   96.92   13.23    0.00   13.23    0.00    0.00 -99.000 -99.000 -99.000   0.348   0.045   0.007   0.011   0.003   0.002   0.000   0.000
 2012 165    13  23.70  39.40  28.40 -99.000   9.049   0.000   9.049   0.387   0.000   0.387   0.000   0.000  105.97   13.61    0.00   13.61    0.00    0.00 -99.000 -99.000 -99.000   0.319   0.044   0.007   0.011   0.003   0.002   0.000   0.000
 2012 166    14  23.90  39.80  27.40 -99.000   9.199   0.000   9.199   0.360   0.000   0.360   0.000   0.000  115.17   13.97    0.00   13.97    0.00    0.00 -99.000 -99.000 -99.000   0.293   0.044   0.007   0.011   0.003   0.002   0.000   0.000
 2012 167    15  25.10  39.90  25.50 -99.000   9.551   0.000   9.551   0.335   0.000   0.335   0.000   0.000  124.72   14.31    0.00   14.31    0.00    0.00 -99.000 -99.000 -99.000   0.269   0.044   0.007   0.011   0.003   0.002   0.000   0.000
 2012 168    16  24.00  40.60  26.20 -99.000   9.439   0.000   9.439   0.313   0.000   0.313   0.000   0.000  134.16   14.62    0.00   14.62    0.00    0.00 -99.000 -99.000 -99.000   0.246   0.044   0.007   0.011   0.003   0.002   0.000   0.000
 2012 169    17  24.20  39.80  28.00 -99.000   9.244   0.000   9.244   0.292   0.000   0.292   0.000   0.000  143.40   14.91    0.00   14.91    0.00    0.00 -99.000 -99.000 -99.000   0.226   0.043   0.007   0.011   0.003   0.002   0.000   0.000
 2012 170    18  21.40  40.40  25.40 -99.000   8.242   0.000   8.242   0.273   0.000   0.273   0.000   0.000  151.65   15.19    0.00   15.19    0.00    0.00 -99.000 -99.000 -99.000   0.207   0.043   0.007   0.011   0.003   0.002   0.000   0.000
 2012 171    19  24.40  40.90  26.70 -99.000   9.664   0.000   9.664   0.256   0.000   0.256   0.000   0.000  161.31   15.44    0.00   15.44    0.00    0.00 -99.000 -99.000 -99.000   0.190   0.043   0.007   0.011   0.003   0.002   0.000   0.000
 2012 172    20  23.40  40.50  28.20 -99.000   9.161   0.000   9.161   0.240   0.000   0.240   0.000   0.000  170.47   15.68    0.00   15.68    0.00    0.00 -99.000 -99.000 -99.000   0.174   0.043   0.007   0.011   0.003   0.002   0.000   0.000
 2012 173    21  18.70  39.40  26.30 -99.000   6.857   0.000   6.857   0.225   0.000   0.225   0.000   0.000  177.33   15.91    0.00   15.91    0.00    0.00 -99.000 -99.000 -99.000   0.160   0.043   0.007   0.011   0.003   0.002   0.000   0.000
 2012 174    22  24.50  40.20  24.60 -99.000   9.205   0.000   9.205   0.212   0.000   0.212   0.000   0.000  186.53   16.12    0.00   16.12    0.00    0.00 -99.000 -99.000 -99.000   0.147   0.042   0.007   0.011   0.003   0.002   0.000   0.000
 2012 175    23  20.90  39.80  27.30 -99.000   7.824   0.000   7.824   0.199   0.000   0.199   0.000   0.000  194.36   16.32    0.00   16.32    0.00    0.00 -99.000 -99.000 -99.000   0.134   0.042   0.007   0.011   0.003   0.002   0.000   0.000
 2012 176    24  22.20  40.50  28.90 -99.000   8.652   0.000   8.652   0.188   0.000   0.188   0.000   0.000  203.01   16.51    0.00   16.51    0.00    0.00 -99.000 -99.000 -99.000   0.123   0.042   0.007   0.011   0.003   0.002   0.000   0.000
 2012 177    25  21.60  39.00  27.30 -99.000   7.756   0.000   7.756   0.178   0.000   0.178   0.000   0.000  210.76   16.68    0.00   16.68    0.00    0.00 -99.000 -99.000 -99.000   0.113   0.042   0.007   0.011   0.003   0.002   0.000   0.000
 2012 178    26  22.30  39.80  27.80 -99.000   8.329   0.000   8.329   0.168   0.000   0.168   0.000   0.000  219.09   16.85    0.00   16.85    0.00    0.00 -99.000 -99.000 -99.000   0.104   0.041   0.007   0.011   0.003   0.002   0.000   0.000
 2012 179    27  21.70  39.60  26.50 -99.000   7.952   0.000   7.952   0.159   0.000   0.159   0.000   0.000  227.05   17.01    0.00   17.01    0.00    0.00 -99.000 -99.000 -99.000   0.095   0.041   0.007   0.011   0.003   0.002   0.000   0.000
 2012 180    28  23.80  40.30  25.30 -99.000   8.930   0.000   8.930   3.071   0.000   3.071   0.000   0.000  235.98   20.08    0.00   20.08    0.00    0.00 -99.000 -99.000 -99.000   0.841   0.720   0.259   0.591   0.369   0.292   0.000   0.000
 2012 181    29  21.50  36.80  21.30 -99.000   7.355   0.000   7.355   4.304   0.000   4.304   0.000   0.000  243.33   24.38    0.00   24.38    0.00    0.00 -99.000 -99.000 -99.000   1.480   1.029   0.359   0.702   0.418   0.316   0.000   0.000
 2012 182    30  14.50  32.60  21.10 -99.000   4.385   0.000   4.385   3.689   0.000   3.689   0.000   0.000  247.72   28.07    0.00   28.07    0.00    0.00 -99.000 -99.000 -99.000   1.049   0.773   0.354   0.719   0.452   0.342   0.000   0.000
 2012 183    31  15.80  33.20  26.20 -99.000   4.846   0.000   4.846   3.267   0.000   3.267   0.000   0.000  252.56   31.34    0.00   31.34    0.00    0.00 -99.000 -99.000 -99.000   0.883   0.627   0.295   0.673   0.441   0.349   0.000   0.000
 2012 184    32  23.40  34.80  23.50 -99.000   7.062   0.000   7.062   3.087   0.000   3.087   0.000   0.000  259.62   34.43    0.00   34.43    0.00    0.00 -99.000 -99.000 -99.000   0.852   0.582   0.253   0.640   0.420   0.340   0.000   0.000
 2012 185    33  15.10  33.90  23.80 -99.000   4.523   0.000   4.523   2.857   0.000   2.857   0.000   0.000  264.15   37.29    0.00   37.29    0.00    0.00 -99.000 -99.000 -99.000   0.802   0.524   0.208   0.601   0.397   0.325   0.000   0.000
 2012 186    34  23.40  36.80  25.40 -99.000   7.853   0.000   7.853   2.594   0.000   2.594   0.000   0.000  272.00   39.88    0.00   39.88    0.00    0.00 -99.000 -99.000 -99.000   0.678   0.492   0.176   0.572   0.374   0.304   0.000   0.000
 2012 187    35  24.80  37.60  27.30 -99.000   8.658   0.000   8.658   2.448   0.000   2.448   0.000   0.000  280.66   42.33    0.00   42.33    0.00    0.00 -99.000 -99.000 -99.000   0.590   0.467   0.163   0.560   0.368   0.300   0.000   0.000
 2012 188    36  18.60  35.30  26.80 -99.000   5.694   0.000   5.694   2.323   0.000   2.323   0.000   0.000  286.35   44.65    0.00   44.65    0.00    0.00 -99.000 -99.000 -99.000   0.513   0.444   0.157   0.548   0.363   0.297   0.000   0.000
 2012 189    37  21.00  36.40  25.90 -99.000   6.733   0.000   6.733   2.208   0.000   2.208   0.000   0.000  293.08   46.86    0.00   46.86    0.00    0.00 -99.000 -99.000 -99.000   0.447   0.422   0.152   0.536   0.358   0.293   0.000   0.000
 2012 190    38  22.50  36.90  25.60 -99.000   7.347   0.000   7.347   0.271   0.000   0.271   0.000   0.000  300.43   47.13    0.00   47.13    0.00    0.00 -99.000 -99.000 -99.000   0.213   0.036   0.006   0.010   0.003   0.002   0.000   0.000
 2012 191    39  23.90  37.30  25.30 -99.000   7.928   0.000   7.928   0.255   0.000   0.255   0.000   0.000  308.36   47.38    0.00   47.38    0.00    0.00 -99.000 -99.000 -99.000   0.198   0.036   0.006   0.010   0.003   0.002   0.000   0.000
 2012 192    40  21.80  38.00  27.00 -99.000   7.553   0.000   7.553   0.241   0.000   0.241   0.000   0.000  315.91   47.63    0.00   47.63    0.00    0.00 -99.000 -99.000 -99.000   0.184   0.036   0.006   0.010   0.003   0.002   0.000   0.000
 2012 193    41  24.50  39.40  27.00 -99.000   9.062   0.000   9.062   0.228   0.000   0.228   0.000   0.000  324.97   47.85    0.00   47.85    0.00    0.00 -99.000 -99.000 -99.000   0.171   0.036   0.006   0.010   0.003   0.002   0.000   0.000
 2012 194    42  17.20  36.90  27.50 -99.000   5.628   0.000   5.628   0.215   0.000   0.215   0.000   0.000  330.60   48.07    0.00   48.07    0.00    0.00 -99.000 -99.000 -99.000   0.159   0.036   0.006   0.010   0.003   0.002   0.000   0.000
 2012 195    43  14.00  34.60  27.80 -99.000   4.123   0.000   4.123   0.204   0.000   0.204   0.000   0.000  334.72   48.27    0.00   48.27    0.00    0.00 -99.000 -99.000 -99.000   0.147   0.035   0.006   0.010   0.003   0.002   0.000   0.000
 2012 196    44  18.80  37.50  26.80 -99.000   6.289   0.000   6.289   0.193   0.000   0.193   0.000   0.000  341.01   48.47    0.00   48.47    0.00    0.00 -99.000 -99.000 -99.000   0.137   0.035   0.006   0.010   0.003   0.002   0.000   0.000
 2012 197    45  21.60  37.90  26.70 -99.000   7.353   0.000   7.353   3.066   0.000   3.066   0.000   0.000  348.37   51.53    0.00   51.53    0.00    0.00 -99.000 -99.000 -99.000   0.971   0.639   0.232   0.565   0.364   0.294   0.000   0.000
 2012 198    46  15.90  32.10  21.40 -99.000   4.793   0.000   4.793   3.169   0.000   3.169   0.000   0.000  353.16   54.70    0.00   54.70    0.00    0.00 -99.000 -99.000 -99.000   1.046   0.646   0.225   0.582   0.374   0.296   0.000   0.000
 2012 199    47  23.40  33.60  25.10 -99.000   7.150   0.000   7.150   2.691   0.000   2.691   0.000   0.000  360.31   57.39    0.00   57.39    0.00    0.00 -99.000 -99.000 -99.000   0.741   0.535   0.184   0.569   0.369   0.293   0.000   0.000
 2012 200    48  24.80  35.10  24.60 -99.000   7.503   0.000   7.503   3.312   0.000   3.312   0.000   0.000  367.81   60.70    0.00   60.70    0.00    0.00 -99.000 -99.000 -99.000   1.103   0.693   0.253   0.592   0.375   0.296   0.000   0.000
 2012 201    49  17.80  33.10  21.80 -99.000   5.438   0.000   5.438   3.066   0.000   3.066   0.000   0.000  373.25   63.77    0.00   63.77    0.00    0.00 -99.000 -99.000 -99.000   0.950   0.629   0.227   0.589   0.372   0.300   0.000   0.000
 2012 202    50  24.50  34.10  25.00 -99.000   7.459   0.000   7.459   2.658   0.000   2.658   0.000   0.000  380.71   66.43    0.00   66.43    0.00    0.00 -99.000 -99.000 -99.000   0.706   0.527   0.186   0.576   0.367   0.296   0.000   0.000
 2012 203    51  22.50  35.20  26.40 -99.000   6.907   0.000   6.907   2.490   0.000   2.490   0.000   0.000  387.62   68.92    0.00   68.92    0.00    0.00 -99.000 -99.000 -99.000   0.609   0.489   0.170   0.567   0.362   0.293   0.000   0.000
 2012 204    52  17.80  34.60  25.50 -99.000   5.305   0.000   5.305   2.358   0.000   2.358   0.000   0.000  392.92   71.28    0.00   71.28    0.00    0.00 -99.000 -99.000 -99.000   0.526   0.464   0.164   0.558   0.358   0.289   0.000   0.000
 2012 205    53  19.60  34.40  24.20 -99.000   5.737   0.000   5.737   0.341   0.000   0.341   0.000   0.000  398.66   71.62    0.00   71.62    0.00    0.00 -99.000 -99.000 -99.000   0.275   0.043   0.007   0.011   0.003   0.002   0.000   0.000
 2012 206    54  23.80  36.50  25.70 -99.000   7.645   0.000   7.645   0.318   0.000   0.318   0.000   0.000  406.30   71.94    0.00   71.94    0.00    0.00 -99.000 -99.000 -99.000   0.252   0.043   0.007   0.011   0.003   0.002   0.000   0.000
 2012 207    55  19.20  35.20  26.70 -99.000   5.769   0.000   5.769   0.297   0.000   0.297   0.000   0.000  412.07   72.23    0.00   72.23    0.00    0.00 -99.000 -99.000 -99.000   0.231   0.042   0.007   0.011   0.003   0.002   0.000   0.000
 2012 208    56  25.00  39.50  25.10 -99.000   9.223   0.000   9.223   0.277   0.000   0.277   0.000   0.000  421.30   72.51    0.00   72.51    0.00    0.00 -99.000 -99.000 -99.000   0.212   0.042   0.007   0.011   0.003   0.002   0.000   0.000
 2012 209    57  24.90  39.10  25.90 -99.000   9.032   0.000   9.032   0.259   0.000   0.259   0.000   0.000  430.33   72.77    0.00   72.77    0.00    0.00 -99.000 -99.000 -99.000   0.194   0.042   0.007   0.011   0.003   0.002   0.000   0.000
 2012 210    58  22.00  36.40  26.50 -99.000   6.978   0.000   6.978   0.396   0.000   0.396   0.000   0.000  437.30   73.16    0.00   73.16    0.00    0.00 -99.000 -99.000 -99.000   0.329   0.045   0.007   0.011   0.003   0.002   0.000   0.000
 2012 211    59   9.40  29.90  20.80 -99.000   2.640   0.000   2.640   2.640   0.000   2.640   0.000   0.000  439.94   75.81    0.00   75.81    0.00    0.00 -99.000 -99.000 -99.000   0.934   0.517   0.183   0.470   0.297   0.238   0.000   0.000
 2012 212    60  25.60  35.50  24.30 -99.000   8.338   0.000   8.338   2.984   0.000   2.984   0.000   0.000  448.28   78.79    0.00   78.79    0.00    0.00 -99.000 -99.000 -99.000   0.942   0.589   0.209   0.580   0.370   0.294   0.000   0.000
 2012 213    61  21.90  34.70  24.20 -99.000   6.667   0.000   6.667   2.620   0.000   2.620   0.000   0.000  454.95   81.41    0.00   81.41    0.00    0.00 -99.000 -99.000 -99.000   0.703   0.512   0.179   0.569   0.365   0.292   0.000   0.000
 2012 214    62  22.30  35.20  25.60 -99.000   6.808   0.000   6.808   2.469   0.000   2.469   0.000   0.000  461.76   83.88    0.00   83.88    0.00    0.00 -99.000 -99.000 -99.000   0.607   0.486   0.167   0.559   0.360   0.290   0.000   0.000
 2012 215    63  19.90  35.00  25.90 -99.000   5.970   0.000   5.970   0.386   0.000   0.386   0.000   0.000  467.73   84.26    0.00   84.26    0.00    0.00 -99.000 -99.000 -99.000   0.317   0.045   0.008   0.011   0.003   0.002   0.000   0.000
 2012 216    64  15.20  33.50  24.60 -99.000   4.433   0.000   4.433   0.359   0.000   0.359   0.000   0.000  472.16   84.62    0.00   84.62    0.00    0.00 -99.000 -99.000 -99.000   0.291   0.045   0.008   0.011   0.003   0.002   0.000   0.000
 2012 217    65  14.80  34.60  24.90 -99.000   4.355   0.000   4.355   3.378   0.000   3.378   0.000   0.000  476.52   88.00    0.00   88.00    0.00    0.00 -99.000 -99.000 -99.000   0.989   0.766   0.262   0.657   0.397   0.306   0.000   0.000
 2012 218    66  13.50  30.80  23.30 -99.000   4.068   0.000   4.068   3.223   0.000   3.223   0.000   0.000  480.58   91.22    0.00   91.22    0.00    0.00 -99.000 -99.000 -99.000   0.939   0.704   0.240   0.643   0.392   0.305   0.000   0.000
 2012 219    67  17.50  32.90  24.30 -99.000   5.233   0.000   5.233   2.717   0.000   2.717   0.000   0.000  485.82   93.94    0.00   93.94    0.00    0.00 -99.000 -99.000 -99.000   0.702   0.556   0.191   0.594   0.374   0.301   0.000   0.000
 2012 220    68  22.20  34.00  25.40 -99.000   6.627   0.000   6.627   2.524   0.000   2.524   0.000   0.000  492.44   96.46    0.00   96.46    0.00    0.00 -99.000 -99.000 -99.000   0.606   0.500   0.172   0.580   0.368   0.298   0.000   0.000
 2012 221    69  14.30  29.70  20.50 -99.000   3.910   0.000   3.910   2.943   0.000   2.943   0.000   0.000  496.35   99.41    0.00   99.41    0.00    0.00 -99.000 -99.000 -99.000   0.962   0.544   0.192   0.579   0.367   0.298   0.000   0.000
 2012 222    70  25.00  33.80  23.00 -99.000   7.757   0.000   7.757   3.688   0.000   3.688   0.000   0.000  504.11  103.09    0.00  103.09    0.00    0.00 -99.000 -99.000 -99.000   1.403   0.721   0.273   0.608   0.380   0.304   0.000   0.000
 2012 223    71  16.80  32.20  23.70 -99.000   5.152   0.000   5.152   3.024   0.000   3.024   0.000   0.000  509.26  106.12    0.00  106.12    0.00    0.00 -99.000 -99.000 -99.000   0.916   0.616   0.228   0.592   0.374   0.298   0.000   0.000
 2012 224    72  19.70  34.70  24.50 -99.000   5.997   0.000   5.997   2.645   0.000   2.645   0.000   0.000  515.26  108.76    0.00  108.76    0.00    0.00 -99.000 -99.000 -99.000   0.695   0.522   0.186   0.579   0.368   0.295   0.000   0.000
 2012 225    73  16.80  33.10  25.60 -99.000   4.970   0.026   4.960   3.142   0.026   3.117   0.000   0.000  520.23  111.91    0.03  111.88    0.00    0.00 -99.000 -99.000 -99.000   1.068   0.586   0.214   0.584   0.370   0.295   0.003   0.214
 2012 226    74  13.40  30.60  22.80 -99.000   4.011   0.029   4.000   2.959   0.029   2.930   0.000   0.000  524.24  114.86    0.06  114.81    0.00    0.00 -99.000 -99.000 -99.000   0.934   0.547   0.195   0.588   0.371   0.295   0.003   0.264
 2012 227    75  20.60  32.30  22.90 -99.000   6.053   0.058   6.030   2.660   0.058   2.602   0.000   0.000  530.29  117.53    0.11  117.41    0.00    0.00 -99.000 -99.000 -99.000   0.700   0.496   0.173   0.575   0.366   0.292   0.006   0.263
 2012 228    76  20.90  32.60  23.50 -99.000   6.059   0.073   6.031   2.522   0.073   2.449   0.000   0.000  536.35  120.05    0.19  119.86    0.00    0.00 -99.000 -99.000 -99.000   0.601   0.469   0.167   0.562   0.360   0.290   0.007   0.162
 2012 229    77  12.00  31.90  24.10 -99.000   3.437   0.051   3.417   0.487   0.051   0.437   0.000   0.000  539.79  120.53    0.24  120.30    0.00    0.00 -99.000 -99.000 -99.000   0.369   0.045   0.008   0.011   0.003   0.002   0.005   0.075
 2012 230    78  10.30  29.30  22.50 -99.000   2.876   0.051   2.856   2.514   0.051   2.463   0.000   0.000  542.67  123.05    0.29  122.76    0.00    0.00 -99.000 -99.000 -99.000   0.639   0.472   0.161   0.550   0.355   0.287   0.005   0.214
 2012 231    79  22.60  33.40  23.20 -99.000   6.551   0.136   6.498   3.315   0.136   3.179   0.000   0.000  549.22  126.36    0.42  125.94    0.00    0.00 -99.000 -99.000 -99.000   1.042   0.666   0.239   0.578   0.364   0.291   0.014   0.095
 2012 232    80  19.50  33.40  23.00 -99.000   6.004   0.146   5.946   3.181   0.146   3.035   0.000   0.000  555.22  129.54    0.57  128.98    0.00    0.00 -99.000 -99.000 -99.000   0.934   0.626   0.224   0.584   0.373   0.295   0.015   0.265
 2012 233    81  22.90  35.40  23.50 -99.000   7.079   0.199   7.001   2.836   0.199   2.637   0.000   0.000  562.30  132.38    0.77  131.61    0.00    0.00 -99.000 -99.000 -99.000   0.697   0.525   0.184   0.571   0.367   0.293   0.020   0.269
 2012 234    82  18.20  36.20  24.80 -99.000   5.803   0.186   5.729   2.650   0.186   2.464   0.000   0.000  568.10  135.03    0.95  134.08    0.00    0.00 -99.000 -99.000 -99.000   0.590   0.492   0.169   0.561   0.362   0.290   0.019   0.214
 2012 235    83  18.70  32.40  23.30 -99.000   5.336   0.193   5.259   3.159   0.193   2.967   0.000   0.000  573.44  138.19    1.15  137.04    0.00    0.00 -99.000 -99.000 -99.000   1.010   0.545   0.193   0.569   0.364   0.287   0.019   0.104
 2012 236    84  20.10  33.40  22.60 -99.000   6.154   0.269   6.046   3.136   0.269   2.867   0.000   0.000  579.59  141.33    1.41  139.91    0.00    0.00 -99.000 -99.000 -99.000   0.928   0.526   0.185   0.573   0.366   0.289   0.027   0.282
 2012 237    85  22.90  34.90  23.80 -99.000   6.906   0.336   6.772   3.133   0.336   2.797   0.000   0.000  586.50  144.46    1.75  142.71    0.00    0.00 -99.000 -99.000 -99.000   0.870   0.517   0.186   0.569   0.365   0.290   0.034   0.285
 2012 238    86  22.40  35.80  24.50 -99.000   7.113   0.386   6.958   2.977   0.386   2.591   0.000   0.000  593.61  147.44    2.14  145.30    0.00    0.00 -99.000 -99.000 -99.000   0.705   0.491   0.173   0.568   0.364   0.290   0.039   0.289
 2012 239    87   8.70  33.60  20.80 -99.000   2.484   0.060   2.424   2.484   0.060   2.424   0.000   0.000  596.10  149.92    2.20  147.72    0.00    0.00 -99.000 -99.000 -99.000   0.775   0.525   0.194   0.439   0.275   0.217   0.006   0.149
 2012 240    88  20.00  32.10  21.30 -99.000   5.967   0.390   5.809   3.524   0.390   3.135   0.000   0.000  602.06  153.44    2.59  150.86    0.00    0.00 -99.000 -99.000 -99.000   0.950   0.671   0.241   0.596   0.375   0.302   0.039   0.299
 2012 241    89  19.60  34.10  23.20 -99.000   5.829   0.424   5.657   3.991   0.424   3.567   0.000   0.000  607.89  157.43    3.01  154.42    0.00    0.00 -99.000 -99.000 -99.000   1.168   0.787   0.298   0.622   0.386   0.306   0.042   0.301
 2012 242    90  21.90  34.60  24.40 -99.000   6.833   0.549   6.609   3.635   0.549   3.086   0.000   0.000  614.72  161.07    3.56  157.51    0.00    0.00 -99.000 -99.000 -99.000   0.920   0.647   0.239   0.601   0.378   0.300   0.055   0.308
 2012 243    91   9.50  30.90  21.30 -99.000   2.683   0.096   2.586   2.682   0.096   2.586   0.000   0.000  617.41  163.75    3.65  160.10    0.00    0.00 -99.000 -99.000 -99.000   0.846   0.557   0.218   0.457   0.285   0.224   0.010   0.315
 2012 244    92  20.70  32.00  21.30 -99.000   6.142   0.578   5.905   3.684   0.578   3.106   0.000   0.000  623.55  167.43    4.23  163.20    0.00    0.00 -99.000 -99.000 -99.000   0.945   0.643   0.241   0.600   0.378   0.300   0.058   0.323
 2012 245    93  20.30  33.90  24.10 -99.000   6.031   0.624   5.773   3.289   0.624   2.665   0.000   0.000  629.58  170.72    4.86  165.87    0.00    0.00 -99.000 -99.000 -99.000   0.693   0.526   0.191   0.586   0.372   0.296   0.062   0.328
 2012 246    94   7.40  28.20  20.90 -99.000   1.980   0.092   1.887   1.979   0.092   1.887   0.000   0.000  631.56  172.70    4.95  167.75    0.00    0.00 -99.000 -99.000 -99.000   0.589   0.351   0.130   0.381   0.243   0.193   0.009   0.238
 2012 247    95  13.70  31.90  22.60 -99.000   4.069   0.485   3.867   3.421   0.485   2.936   0.000   0.000  635.63  176.12    5.43  170.69    0.00    0.00 -99.000 -99.000 -99.000   0.900   0.564   0.213   0.588   0.374   0.297   0.049   0.349
 2012 248    96  22.50  34.10  22.80 -99.000   6.597   0.852   6.241   3.459   0.852   2.607   0.000   0.000  642.22  179.58    6.29  173.30    0.00    0.00 -99.000 -99.000 -99.000   0.680   0.498   0.181   0.581   0.371   0.296   0.085   0.355
 2012 249    97  15.90  33.20  24.70 -99.000   4.584   0.647   4.312   3.037   0.647   2.391   0.000   0.000  646.81  182.62    6.93  175.69    0.00    0.00 -99.000 -99.000 -99.000   0.547   0.450   0.167   0.568   0.365   0.293   0.065   0.178
 2012 250    98  19.80  34.10  22.70 -99.000   5.630   0.856   5.267   1.196   0.856   0.340   0.000   0.000  652.44  183.82    7.79  176.03    0.00    0.00 -99.000 -99.000 -99.000   0.276   0.040   0.007   0.011   0.003   0.002   0.086   0.110
 2012 251    99  24.90  34.00  23.10 -99.000   7.053   1.153   6.561   1.327   1.017   0.310   0.000   0.000  659.49  185.14    8.81  176.34    0.00    0.00 -99.000 -99.000 -99.000   0.248   0.038   0.007   0.011   0.003   0.002   0.102   0.102
 2012 252   100   9.90  31.90  23.00 -99.000   2.730   0.469   2.529   0.774   0.469   0.305   0.000   0.000  662.22  185.92    9.28  176.64    0.00    0.00 -99.000 -99.000 -99.000   0.245   0.037   0.007   0.011   0.003   0.002   0.047   0.097
 2012 253   101  22.20  35.00  22.10 -99.000   6.294   1.143   5.801   1.346   1.043   0.303   0.000   0.000  668.52  187.26   10.32  176.95    0.00    0.00 -99.000 -99.000 -99.000   0.245   0.036   0.007   0.011   0.003   0.002   0.104   0.104
 2012 254   102  22.80  35.20  22.60 -99.000   6.529   1.246   5.989   1.249   0.971   0.279   0.000   0.000  675.04  188.51   11.29  177.22    0.00    0.00 -99.000 -99.000 -99.000   0.221   0.035   0.007   0.011   0.003   0.002   0.097   0.097
 2012 255   103  20.50  34.50  21.10 -99.000   5.697   1.120   5.210   4.193   0.979   3.213   0.000   0.000  680.74  192.70   12.27  180.44    0.00    0.00 -99.000 -99.000 -99.000   0.935   0.714   0.254   0.628   0.382   0.301   0.098   0.098
 2012 256   104  23.30  33.40  22.30 -99.000   6.942   1.421   6.321   4.615   1.421   3.194   0.000   0.000  687.68  197.32   13.69  183.63    0.00    0.00 -99.000 -99.000 -99.000   0.941   0.702   0.239   0.627   0.384   0.300   0.142   0.479
 2012 257   105  19.10  34.70  25.20 -99.000   5.658   1.269   5.096   4.058   1.269   2.788   0.000   0.000  693.34  201.38   14.96  186.42    0.00    0.00 -99.000 -99.000 -99.000   0.721   0.559   0.220   0.608   0.380   0.300   0.127   0.499
 2012 258   106  20.40  34.20  21.80 -99.000   5.772   1.393   5.148   4.099   1.393   2.706   0.000   0.000  699.11  205.48   16.35  189.12    0.00    0.00 -99.000 -99.000 -99.000   0.717   0.517   0.202   0.592   0.378   0.301   0.139   0.437
 2012 259   107  19.30  34.30  22.60 -99.000   5.556   1.454   4.898   4.596   1.454   3.142   0.000   0.000  704.67  210.07   17.81  192.27    0.00    0.00 -99.000 -99.000 -99.000   1.116   0.550   0.212   0.588   0.375   0.300   0.145   0.470
 2012 260   108  10.90  31.20  22.50 -99.000   3.138   0.405   2.732   3.137   0.405   2.732   0.000   0.000  707.81  213.21   18.21  195.00    0.00    0.00 -99.000 -99.000 -99.000   1.064   0.502   0.196   0.455   0.287   0.228   0.041   0.557
 2012 261   109  21.50  34.10  21.50 -99.000   6.319   1.879   5.447   5.407   1.879   3.528   0.000   0.000  714.12  218.62   20.09  198.53    0.00    0.00 -99.000 -99.000 -99.000   1.226   0.682   0.292   0.626   0.393   0.309   0.188   0.579
 2012 262   110  17.60  30.80  21.50 -99.000   4.905   1.572   4.163   4.356   1.572   2.784   0.000   0.000  719.03  222.97   21.66  201.31    0.00    0.00 -99.000 -99.000 -99.000   0.777   0.533   0.210   0.590   0.376   0.300   0.157   0.595
 2012 263   111  22.70  34.70  21.70 -99.000   6.390   2.201   5.336   4.706   2.201   2.505   0.000   0.000  725.42  227.68   23.86  203.82    0.00    0.00 -99.000 -99.000 -99.000   0.619   0.474   0.177   0.572   0.368   0.295   0.220   0.538
 2012 264   112  24.00  35.60  23.80 -99.000   7.001   2.592   5.737   4.838   2.592   2.246   0.000   0.000  732.42  232.52   26.46  206.06    0.00    0.00 -99.000 -99.000 -99.000   0.471   0.412   0.164   0.552   0.358   0.289   0.259   0.315
 2012 265   113   6.00  28.50  21.10 -99.000   1.539   0.299   1.239   1.537   0.299   1.238   0.000   0.000  733.96  234.05   26.75  207.30    0.00    0.00 -99.000 -99.000 -99.000   0.392   0.257   0.096   0.231   0.146   0.116   0.030   0.237
 2012 266   114  21.20  34.10  22.70 -99.000   6.169   2.476   4.933   5.562   2.476   3.087   0.000   0.000  740.13  239.62   29.23  210.39    0.00    0.00 -99.000 -99.000 -99.000   0.971   0.642   0.227   0.585   0.371   0.291   0.248   0.717
 2012 267   115  22.90  35.10  23.80 -99.000   6.592   2.797   5.170   5.399   2.797   2.602   0.000   0.000  746.72  245.02   32.03  212.99    0.00    0.00 -99.000 -99.000 -99.000   0.684   0.514   0.182   0.567   0.363   0.291   0.280   0.728
 2012 268   116  19.40  35.20  24.60 -99.000   5.528   2.472   4.247   4.777   2.472   2.305   0.000   0.000  752.25  249.79   34.50  215.29    0.00    0.00 -99.000 -99.000 -99.000   0.509   0.437   0.167   0.549   0.355   0.287   0.247   0.454
 2012 269   117  20.30  35.70  23.70 -99.000   5.859   2.734   4.420   5.227   2.734   2.493   0.000   0.000  758.11  255.02   37.23  217.79    0.00    0.00 -99.000 -99.000 -99.000   0.730   0.452   0.161   0.528   0.342   0.279   0.273   0.309
 2012 270   118  23.60  35.00  22.20 -99.000   6.694   3.236   4.966   5.738   3.236   2.502   0.000   0.000  764.80  260.76   40.47  220.29    0.00    0.00 -99.000 -99.000 -99.000   0.751   0.479   0.161   0.517   0.326   0.268   0.324   0.602
 2012 271   119  21.90  33.70  23.80 -99.000   6.017   3.053   4.351   3.070   2.690   0.379   0.000   0.000  770.82  263.83   43.16  220.67    0.00    0.00 -99.000 -99.000 -99.000   0.319   0.039   0.007   0.010   0.003   0.001   0.269   0.269
 2012 272   120  20.00  35.50  24.90 -99.000   5.723   2.978   4.082   2.257   1.935   0.322   0.000   0.000  776.54  266.08   45.09  220.99    0.00    0.00 -99.000 -99.000 -99.000   0.266   0.036   0.007   0.010   0.003   0.001   0.193   0.193
 2012 273   121  21.40  34.20  25.10 -99.000   5.899   3.071   4.202   4.212   1.606   2.606   0.000   0.000  782.44  270.30   46.70  223.60    0.00    0.00 -99.000 -99.000 -99.000   0.927   0.466   0.163   0.495   0.304   0.250   0.161   0.161
 2012 274   122  14.50  32.30  20.70 -99.000   3.996   1.335   2.858   3.991   1.335   2.657   0.000   0.000  786.44  274.29   48.03  226.25    0.00    0.00 -99.000 -99.000 -99.000   0.911   0.506   0.171   0.529   0.297   0.243   0.133   0.673
 2012 275   123  14.70  35.20  23.50 -99.000   4.166   1.779   2.915   4.164   1.779   2.384   0.000   0.000  790.60  278.45   49.81  228.64    0.00    0.00 -99.000 -99.000 -99.000   0.674   0.462   0.159   0.556   0.294   0.239   0.178   0.576
 2012 276   124  18.20  34.10  23.90 -99.000   4.986   2.754   3.420   3.124   2.754   0.370   0.000   0.000  795.59  281.58   52.57  229.01    0.00    0.00 -99.000 -99.000 -99.000   0.307   0.042   0.007   0.011   0.003   0.001   0.275   0.334
 2012 277   125  15.70  34.20  23.70 -99.000   4.272   2.427   2.872   2.407   2.085   0.321   0.000   0.000  799.86  283.98   54.65  229.33    0.00    0.00 -99.000 -99.000 -99.000   0.263   0.037   0.007   0.010   0.003   0.001   0.209   0.209
 2012 278   126  23.10  37.00  22.50 -99.000   6.970   4.007   4.643   1.870   1.581   0.289   0.000   0.000  806.83  285.85   56.23  229.62    0.00    0.00 -99.000 -99.000 -99.000   0.234   0.035   0.006   0.010   0.003   0.001   0.158   0.158
 2012 279   127  20.70  36.50  24.30 -99.000   6.147   3.511   4.113   1.578   1.314   0.264   0.000   0.000  812.98  287.43   57.55  229.88    0.00    0.00 -99.000 -99.000 -99.000   0.211   0.034   0.006   0.009   0.003   0.001   0.131   0.131
 2012 280   128  13.80  34.20  23.80 -99.000   3.731   2.118   2.509   1.353   1.110   0.243   0.000   0.000  816.71  288.78   58.66  230.13    0.00    0.00 -99.000 -99.000 -99.000   0.191   0.033   0.006   0.009   0.003   0.001   0.111   0.112
 2012 281   129  22.30  35.70  22.70 -99.000   6.263   3.519   4.244   1.205   0.980   0.226   0.000   0.000  822.97  289.99   59.64  230.35    0.00    0.00 -99.000 -99.000 -99.000   0.176   0.032   0.006   0.009   0.002   0.001   0.098   0.098
 2012 282   130  21.80  39.60  24.30 -99.000   7.525   4.192   5.133   1.093   0.884   0.210   0.000   0.000  830.49  291.08   60.52  230.56    0.00    0.00 -99.000 -99.000 -99.000   0.161   0.031   0.006   0.009   0.002   0.001   0.088   0.088
 2012 283   131  21.40  37.00  23.80 -99.000   6.472   3.568   4.446   0.997   0.801   0.196   0.000   0.000  836.97  292.08   61.32  230.76    0.00    0.00 -99.000 -99.000 -99.000   0.148   0.030   0.005   0.009   0.002   0.001   0.080   0.080
 2012 284   132  21.30  37.20  24.30 -99.000   6.524   3.560   4.513   0.914   0.732   0.182   0.000   0.000  843.49  292.99   62.05  230.94    0.00    0.00 -99.000 -99.000 -99.000   0.135   0.029   0.005   0.009   0.002   0.001   0.073   0.073
 2012 285   133  19.00  35.30  24.30 -99.000   5.258   2.836   3.664   0.845   0.674   0.170   0.000   0.000  848.75  293.84   62.73  231.11    0.00    0.00 -99.000 -99.000 -99.000   0.124   0.029   0.005   0.008   0.002   0.001   0.067   0.067
 2012 286   134  21.40  37.40  24.20 -99.000   6.607   3.528   4.636   0.784   0.625   0.159   0.000   0.000  855.36  294.62   63.35  231.27    0.00    0.00 -99.000 -99.000 -99.000   0.114   0.028   0.005   0.008   0.002   0.001   0.063   0.063
 2012 287   135  20.70  37.70  24.40 -99.000   6.493   3.427   4.590   0.733   0.584   0.149   0.000   0.000  861.85  295.35   63.94  231.42    0.00    0.00 -99.000 -99.000 -99.000   0.104   0.028   0.005   0.008   0.002   0.001   0.058   0.058
 2012 288   136  22.40  37.30  22.30 -99.000   6.787   3.538   4.834   0.686   0.546   0.140   0.000   0.000  868.64  296.04   64.48  231.56    0.00    0.00 -99.000 -99.000 -99.000   0.096   0.027   0.005   0.008   0.002   0.001   0.055   0.055
 2012 289   137  20.40  39.10  24.50 -99.000   6.851   3.524   4.916   0.645   0.514   0.131   0.000   0.000  875.49  296.69   65.00  231.69    0.00    0.00 -99.000 -99.000 -99.000   0.088   0.027   0.005   0.008   0.002   0.001   0.051   0.051
 2012 290   138  21.80  39.40  21.50 -99.000   7.280   3.698   5.263   0.608   0.484   0.123   0.000   0.000  882.77  297.29   65.48  231.81    0.00    0.00 -99.000 -99.000 -99.000   0.081   0.027   0.005   0.008   0.002   0.001   0.048   0.048
 2012 291   139  21.90  36.60  22.90 -99.000   6.415   3.214   4.672   0.574   0.458   0.116   0.000   0.000  889.18  297.87   65.94  231.93    0.00    0.00 -99.000 -99.000 -99.000   0.074   0.026   0.005   0.008   0.002   0.001   0.046   0.046
 2012 292   140  20.30  36.90  23.80 -99.000   6.073   3.000   4.456   0.544   0.434   0.110   0.000   0.000  895.25  298.41   66.37  232.04    0.00    0.00 -99.000 -99.000 -99.000   0.068   0.026   0.005   0.008   0.002   0.001   0.043   0.043
 2012 293   141  20.00  37.10  18.70 -99.000   5.839   2.843   4.316   2.822   0.413   2.409   0.000   0.000  901.09  301.23   66.79  234.45    0.00    0.00 -99.000 -99.000 -99.000   0.820   0.524   0.182   0.438   0.245   0.200   0.041   0.041
 2012 294   142  22.10  37.70  22.30 -99.000   7.308   3.509   5.440   6.236   3.509   2.727   0.000   0.001  908.40  307.47   70.30  237.17    0.00    0.00 -99.000 -99.000 -99.000   0.948   0.592   0.200   0.521   0.268   0.197   0.351   0.700
 2012 295   143  17.20  37.20  22.80 -99.000   5.394   2.582   4.022   4.928   2.582   2.345   0.000   0.001  913.79  312.40   72.88  239.52    0.00    0.00 -99.000 -99.000 -99.000   0.658   0.478   0.167   0.556   0.292   0.194   0.258   0.795
 2012 296   144  20.20  36.50  26.10 -99.000   6.158   2.935   4.600   3.293   2.935   0.358   0.000   0.001  919.95  315.69   75.81  239.88    0.00    0.00 -99.000 -99.000 -99.000   0.297   0.040   0.007   0.011   0.003   0.001   0.293   0.352
 2012 297   145  21.40  38.10  23.40 -99.000   6.923   3.289   5.181   2.382   2.066   0.315   0.000   0.001  926.88  318.07   77.88  240.19    0.00    0.00 -99.000 -99.000 -99.000   0.258   0.037   0.006   0.010   0.003   0.001   0.207   0.207
 2012 298   146  19.50  37.50  22.70 -99.000   6.076   2.849   4.575   1.773   1.489   0.284   0.000   0.001  932.95  319.85   79.37  240.48    0.00    0.00 -99.000 -99.000 -99.000   0.230   0.034   0.006   0.009   0.003   0.001   0.149   0.149
 2012 299   147  20.20  39.10  22.60 -99.000   6.793   3.130   5.155   1.455   1.195   0.260   0.000   0.001  939.74  321.30   80.56  240.73    0.00    0.00 -99.000 -99.000 -99.000   0.208   0.033   0.006   0.009   0.003   0.001   0.119   0.119
 2012 300   148  18.50  38.20  24.50 -99.000   6.019   2.711   4.612   1.234   0.994   0.239   0.000   0.001  945.76  322.53   81.56  240.97    0.00    0.00 -99.000 -99.000 -99.000   0.189   0.032   0.006   0.009   0.002   0.001   0.099   0.101
 2012 301   149  19.80  39.30  23.00 -99.000   6.720   2.957   5.199   1.089   0.866   0.222   0.000   0.001  952.48  323.62   82.42  241.20    0.00    0.01 -99.000 -99.000 -99.000   0.173   0.031   0.006   0.009   0.002   0.001   0.087   0.087
 2012 302   150  15.00  33.30  24.40 -99.000   4.044   1.730   3.161   0.978   0.770   0.206   0.000   0.001  956.53  324.60   83.19  241.40    0.00    0.01 -99.000 -99.000 -99.000   0.159   0.030   0.005   0.009   0.002   0.001   0.077   0.077
 2012 303   151  20.10  37.40  21.60 -99.000   6.138   2.574   4.835   0.887   0.694   0.192   0.000   0.001  962.67  325.49   83.89  241.59    0.00    0.01 -99.000 -99.000 -99.000   0.146   0.029   0.005   0.008   0.002   0.001   0.069   0.069
 2012 304   152  20.50  38.50  21.10 -99.000   6.585   2.685   5.238   0.815   0.635   0.179   0.000   0.001  969.25  326.30   84.52  241.77    0.00    0.01 -99.000 -99.000 -99.000   0.134   0.029   0.005   0.008   0.002   0.001   0.064   0.064
 2012 305   153  20.90  39.90  21.20 -99.000   7.177   2.840   5.765   0.753   0.585   0.167   0.000   0.001  976.43  327.06   85.11  241.94    0.00    0.01 -99.000 -99.000 -99.000   0.123   0.028   0.005   0.008   0.002   0.001   0.059   0.059
 2012 306   154  20.10  37.80  21.20 -99.000   6.226   2.388   5.050   0.700   0.542   0.157   0.000   0.001  982.65  327.76   85.65  242.10    0.00    0.01 -99.000 -99.000 -99.000   0.112   0.028   0.005   0.008   0.002   0.001   0.054   0.054
 2012 307   155  19.80  37.60  20.50 -99.000   6.036   2.245   4.939   0.653   0.505   0.147   0.000   0.001  988.69  328.41   86.16  242.24    0.00    0.01 -99.000 -99.000 -99.000   0.103   0.027   0.005   0.008   0.002   0.001   0.051   0.051
 2012 308   156  19.00  38.30  21.80 -99.000   6.043   2.177   4.988   0.612   0.474   0.137   0.000   0.001  994.73  329.02   86.63  242.38    0.00    0.01 -99.000 -99.000 -99.000   0.095   0.027   0.005   0.008   0.002   0.001   0.047   0.047
 2012 309   157  20.60  39.30  21.80 -99.000   6.870   2.399   5.717   0.575   0.446   0.129   0.000   0.001   1002.    330.     87.    243.      0.      0. -99.000 -99.000 -99.000   0.087   0.026   0.005   0.008   0.002   0.001   0.045   0.045
 2012 310   158  20.20  40.10  19.60 -99.000   6.887   2.326   5.779   0.543   0.421   0.121   0.000   0.001   1008.    330.     87.    243.      0.      0. -99.000 -99.000 -99.000   0.080   0.026   0.005   0.008   0.002   0.001   0.042   0.042
 2012 311   159  19.10  39.90  19.80 -99.000   6.452   2.106   5.456   0.513   0.398   0.114   0.000   0.001   1015.    331.     88.    243.      0.      0. -99.000 -99.000 -99.000   0.073   0.026   0.005   0.008   0.002   0.001   0.040   0.040
 2012 312   160  17.60  39.50  22.80 -99.000   5.942   1.874   5.062   0.486   0.378   0.108   0.000   0.001   1021.    331.     88.    243.      0.      0. -99.000 -99.000 -99.000   0.067   0.025   0.005   0.008   0.002   0.001   0.038   0.038
 2012 313   161  18.00  40.60  17.80 -99.000   6.184   1.887   5.305   0.462   0.360   0.102   0.000   0.001   1027.    332.     89.    243.      0.      0. -99.000 -99.000 -99.000   0.061   0.025   0.005   0.008   0.002   0.001   0.036   0.036
 2012 314   162  20.60  39.60  15.00 -99.000   6.618   1.951   5.715   0.440   0.343   0.096   0.000   0.001   1034.    332.     89.    243.      0.      0. -99.000 -99.000 -99.000   0.056   0.025   0.005   0.007   0.002   0.001   0.034   0.034
 2012 315   163  21.60  39.50  13.10 -99.000   6.807   1.937   5.917   0.420   0.328   0.091   0.000   0.001   1040.    332.     89.    243.      0.      0. -99.000 -99.000 -99.000   0.052   0.024   0.005   0.007   0.002   0.001   0.033   0.033
 2012 316   164  20.30  39.40  13.80 -99.000   6.389   1.753   5.588   0.401   0.314   0.086   0.000   0.001   1047.    333.     90.    243.      0.      0. -99.000 -99.000 -99.000   0.047   0.024   0.004   0.007   0.002   0.001   0.031   0.031
 2012 317   165  19.80  40.70  15.50 -99.000   6.695   1.773   5.890   0.384   0.301   0.082   0.000   0.001   1054.    333.     90.    243.      0.      0. -99.000 -99.000 -99.000   0.043   0.024   0.004   0.007   0.002   0.001   0.030   0.030
 2012 318   166  18.90  39.90  17.10 -99.000   6.217   1.587   5.501   0.368   0.289   0.078   0.000   0.001   1060.    334.     90.    243.      0.      0. -99.000 -99.000 -99.000   0.040   0.024   0.004   0.007   0.002   0.001   0.029   0.029
 2012 319   167  19.50  41.80  16.10 -99.000   6.945   1.711   6.178   0.353   0.278   0.074   0.000   0.001   1067.    334.     90.    243.      0.      0. -99.000 -99.000 -99.000   0.036   0.023   0.004   0.007   0.002   0.001   0.028   0.028
 2012 320   168  13.40  39.80  16.80 -99.000   4.369   1.038   3.906   0.340   0.268   0.071   0.000   0.001   1071.    334.     91.    244.      0.      0. -99.000 -99.000 -99.000   0.033   0.023   0.004   0.007   0.002   0.001   0.027   0.027
 2012 321   169  17.00  39.60  16.60 -99.000   5.476   1.259   4.918   0.308   0.240   0.068   0.000   0.001   1077.    335.     91.    244.      0.      0. -99.000 -99.000 -99.000   0.031   0.023   0.004   0.007   0.002   0.001   0.024   0.026
 2012 322   170  19.30  39.30  16.20 -99.000   6.104   1.354   5.507   0.294   0.228   0.065   0.000   0.000   1083.    335.     91.    244.      0.      0. -99.000 -99.000 -99.000   0.028   0.023   0.004   0.007   0.002   0.001   0.023   0.023
 2012 323   171  17.90  38.20  19.30 -99.000   5.471   1.169   4.958   0.284   0.221   0.063   0.000   0.000   1088.    335.     91.    244.      0.      0. -99.000 -99.000 -99.000   0.026   0.023   0.004   0.007   0.002   0.001   0.022   0.022
 2012 324   172  11.10  35.60  21.20 -99.000   2.998   0.618   2.728   0.274   0.214   0.060   0.000   0.000   1091.    335.     92.    244.      0.      0. -99.000 -99.000 -99.000   0.024   0.022   0.004   0.007   0.002   0.001   0.021   0.021
 2012 325   173  15.50  35.80  20.30 -99.000   4.200   0.840   3.834   0.266   0.207   0.058   0.000   0.000   1095.    336.     92.    244.      0.      0. -99.000 -99.000 -99.000   0.022   0.022   0.004   0.007   0.002   0.001   0.021   0.021
 2012 326   174  16.80  36.90  20.10 -99.000   4.812   0.929   4.409   0.258   0.201   0.056   0.000   0.000   1100.    336.     92.    244.      0.      0. -99.000 -99.000 -99.000   0.020   0.022   0.004   0.007   0.002   0.001   0.020   0.020
 2012 327   175  16.60  38.10  20.80 -99.000   5.071   0.944   4.662   0.250   0.195   0.054   0.000   0.000   1105.    336.     92.    244.      0.      0. -99.000 -99.000 -99.000   0.018   0.022   0.004   0.007   0.002   0.001   0.020   0.020
 2012 328   176  13.90  37.60  21.50 -99.000   4.154   0.746   3.832   0.243   0.190   0.053   0.000   0.000   1109.    336.     92.    244.      0.      0. -99.000 -99.000 -99.000   0.017   0.022   0.004   0.007   0.002   0.001   0.019   0.019
 2012 329   177  16.00  40.20  20.10 -99.000   5.366   0.931   4.967   0.236   0.184   0.051   0.000   0.000   1115.    337.     93.    244.      0.      0. -99.000 -99.000 -99.000   0.015   0.022   0.004   0.007   0.002   0.001   0.018   0.018
 2012 330   178  19.20  39.90  17.00 -99.000   6.211   1.038   5.767   0.229   0.179   0.050   0.000   0.000   1121.    337.     93.    244.      0.      0. -99.000 -99.000 -99.000   0.014   0.022   0.004   0.007   0.002   0.001   0.018   0.018
 2012 331   179  19.40  39.50  18.50 -99.000   6.210   0.999   5.784   0.223   0.174   0.048   0.000   0.000   1127.    337.     93.    244.      0.      0. -99.000 -99.000 -99.000   0.013   0.022   0.004   0.007   0.002   0.001   0.017   0.017
 2012 332   180  15.30  37.40  19.00 -99.000   4.422   0.712   4.119   0.217   0.170   0.047   0.000   0.000   1132.    337.     93.    244.      0.      0. -99.000 -99.000 -99.000   0.012   0.022   0.004   0.007   0.002   0.001   0.017   0.017
 2012 333   181  14.20  34.60  15.90 -99.000   3.517   0.566   3.276   0.211   0.165   0.046   0.000   0.000   1135.    338.     93.    244.      0.      0. -99.000 -99.000 -99.000   0.011   0.021   0.004   0.007   0.002   0.001   0.017   0.017
