*MANAGEMENT OPERATIONS EVENT SUMMARY

*DSSAT Cropping System Model Ver. 4.8.2.000 -release  FEB 18, 2025 01:32:02
!---------------------------------------------------------------------------------------------
@RUN Date........  DOY    DAS    DAP  CR  Stage         Operation       Quantities
!---------------------------------------------------------------------------------------------
   1 JUN  1, 2012  153      1      0  RI  14 Start Sim 
   1 JUL  2, 2012  184     32      0  RI                Tillage           10.0 cm
   1 JUL 20, 2012  202     50      0  RI                Fertilizer      
   1 AUG  7, 2012  220     68      0  RI                Planting       
   1 AUG  7, 2012  220     68      0  RI  07 Sowing    
   1 AUG  9, 2012  222     70      2  RI  08 Germinate 
   1 AUG  9, 2012  222     70      2  RI                Fertilizer      
   1 AUG 11, 2012  224     72      4  RI  09 Emergence 
   1 SEP  8, 2012  252    100     32  RI                Fertilizer      
   1 SEP 12, 2012  256    104     36  RI  01 End Juveni
   1 SEP 21, 2012  265    113     45  RI  02 Pan Init  
   1 OCT 20, 2012  294    142     74  RI  03 Heading   
   1 OCT 28, 2012  302    150     82  RI  04 Beg Gr Fil
   1 NOV 25, 2012  330    178    110  RI  05 End Mn Fil
   1 NOV 26, 2012  331    179    111  RI  12 End Ti Fil
   1 NOV 27, 2012  332    180    112  RI  20 Harvest   
                                             100.0 % yield harvested      194. kg/ha
                                               0.0 % by-product harv        0. kg/ha
 
