*MANAGEMENT OPERATIONS DAILY OUTPUT FILE

*DSSAT Cropping System Model Ver. 4.8.2.000 -release  FEB 18, 2025 01:32:02

*RUN   1        : F1 NE 4                   RICER048 CRDA1201    1
 MODEL          : RICER048 - Rice
 EXPERIMENT     : CRDA1201 WH ESSAI VARIETE DAROU PAKA 2012
 DATA PATH      :
 TREATMENT  1   : F1 NE 4                   RICER048
  

@YEAR DOY   DAS   DAP  TL#C  TLDD DLYR3   TLBD  R#AC RESNC RESPC
 2012 153     1     0     0     0    20  1.530     0     0     0
 2012 154     2     0     0     0    20  1.530     0     0     0
 2012 155     3     0     0     0    20  1.530     0     0     0
 2012 156     4     0     0     0    20  1.530     0     0     0
 2012 157     5     0     0     0    20  1.530     0     0     0
 2012 158     6     0     0     0    20  1.530     0     0     0
 2012 159     7     0     0     0    20  1.530     0     0     0
 2012 160     8     0     0     0    20  1.530     0     0     0
 2012 161     9     0     0     0    20  1.530     0     0     0
 2012 162    10     0     0     0    20  1.530     0     0     0
 2012 163    11     0     0     0    20  1.530     0     0     0
 2012 164    12     0     0     0    20  1.530     0     0     0
 2012 165    13     0     0     0    20  1.530     0     0     0
 2012 166    14     0     0     0    20  1.530     0     0     0
 2012 167    15     0     0     0    20  1.530     0     0     0
 2012 168    16     0     0     0    20  1.530     0     0     0
 2012 169    17     0     0     0    20  1.530     0     0     0
 2012 170    18     0     0     0    20  1.530     0     0     0
 2012 171    19     0     0     0    20  1.530     0     0     0
 2012 172    20     0     0     0    20  1.530     0     0     0
 2012 173    21     0     0     0    20  1.530     0     0     0
 2012 174    22     0     0     0    20  1.530     0     0     0
 2012 175    23     0     0     0    20  1.530     0     0     0
 2012 176    24     0     0     0    20  1.530     0     0     0
 2012 177    25     0     0     0    20  1.530     0     0     0
 2012 178    26     0     0     0    20  1.530     0     0     0
 2012 179    27     0     0     0    20  1.530     0     0     0
 2012 180    28     0     0     0    20  1.530     0     0     0
 2012 181    29     0     0     0    20  1.530     0     0     0
 2012 182    30     0     0     0    20  1.530     0     0     0
 2012 183    31     0     0     0    20  1.530     0     0     0
 2012 184    32     0     1    10    21  1.463     0     0     0
 2012 185    33     0     1     0    21  1.469     0     0     0
 2012 186    34     0     1     0    21  1.469     0     0     0
 2012 187    35     0     1     0    21  1.469     0     0     0
 2012 188    36     0     1     0    21  1.469     0     0     0
 2012 189    37     0     1     0    21  1.469     0     0     0
 2012 190    38     0     1     0    21  1.469     0     0     0
 2012 191    39     0     1     0    21  1.469     0     0     0
 2012 192    40     0     1     0    21  1.469     0     0     0
 2012 193    41     0     1     0    21  1.469     0     0     0
 2012 194    42     0     1     0    21  1.469     0     0     0
 2012 195    43     0     1     0    21  1.469     0     0     0
 2012 196    44     0     1     0    21  1.469     0     0     0
 2012 197    45     0     1     0    20  1.516     0     0     0
 2012 198    46     0     1     0    20  1.516     0     0     0
 2012 199    47     0     1     0    20  1.516     0     0     0
 2012 200    48     0     1     0    20  1.530     0     0     0
 2012 201    49     0     1     0    20  1.530     0     0     0
 2012 202    50     0     1     0    20  1.530     0     0     0
 2012 203    51     0     1     0    20  1.530     0     0     0
 2012 204    52     0     1     0    20  1.530     0     0     0
 2012 205    53     0     1     0    20  1.530     0     0     0
 2012 206    54     0     1     0    20  1.530     0     0     0
 2012 207    55     0     1     0    20  1.530     0     0     0
 2012 208    56     0     1     0    20  1.530     0     0     0
 2012 209    57     0     1     0    20  1.530     0     0     0
 2012 210    58     0     1     0    20  1.530     0     0     0
 2012 211    59     0     1     0    20  1.530     0     0     0
 2012 212    60     0     1     0    20  1.530     0     0     0
 2012 213    61     0     1     0    20  1.530     0     0     0
 2012 214    62     0     1     0    20  1.530     0     0     0
 2012 215    63     0     1     0    20  1.530     0     0     0
 2012 216    64     0     1     0    20  1.530     0     0     0
 2012 217    65     0     1     0    20  1.530     0     0     0
 2012 218    66     0     1     0    20  1.530     0     0     0
 2012 219    67     0     1     0    20  1.530     0     0     0
 2012 220    68     0     1     0    20  1.530     0     0     0
 2012 221    69     1     1     0    20  1.530     0     0     0
 2012 222    70     2     1     0    20  1.530     0     0     0
 2012 223    71     3     1     0    20  1.530     0     0     0
 2012 224    72     4     1     0    20  1.530     0     0     0
 2012 225    73     5     1     0    20  1.530     0     0     0
 2012 226    74     6     1     0    20  1.530     0     0     0
 2012 227    75     7     1     0    20  1.530     0     0     0
 2012 228    76     8     1     0    20  1.530     0     0     0
 2012 229    77     9     1     0    20  1.530     0     0     0
 2012 230    78    10     1     0    20  1.530     0     0     0
 2012 231    79    11     1     0    20  1.530     0     0     0
 2012 232    80    12     1     0    20  1.530     0     0     0
 2012 233    81    13     1     0    20  1.530     0     0     0
 2012 234    82    14     1     0    20  1.530     0     0     0
 2012 235    83    15     1     0    20  1.530     0     0     0
 2012 236    84    16     1     0    20  1.530     0     0     0
 2012 237    85    17     1     0    20  1.530     0     0     0
 2012 238    86    18     1     0    20  1.530     0     0     0
 2012 239    87    19     1     0    20  1.530     0     0     0
 2012 240    88    20     1     0    20  1.530     0     0     0
 2012 241    89    21     1     0    20  1.530     0     0     0
 2012 242    90    22     1     0    20  1.530     0     0     0
 2012 243    91    23     1     0    20  1.530     0     0     0
 2012 244    92    24     1     0    20  1.530     0     0     0
 2012 245    93    25     1     0    20  1.530     0     0     0
 2012 246    94    26     1     0    20  1.530     0     0     0
 2012 247    95    27     1     0    20  1.530     0     0     0
 2012 248    96    28     1     0    20  1.530     0     0     0
 2012 249    97    29     1     0    20  1.530     0     0     0
 2012 250    98    30     1     0    20  1.530     0     0     0
 2012 251    99    31     1     0    20  1.530     0     0     0
 2012 252   100    32     1     0    20  1.530     0     0     0
 2012 253   101    33     1     0    20  1.530     0     0     0
 2012 254   102    34     1     0    20  1.530     0     0     0
 2012 255   103    35     1     0    20  1.530     0     0     0
 2012 256   104    36     1     0    20  1.530     0     0     0
 2012 257   105    37     1     0    20  1.530     0     0     0
 2012 258   106    38     1     0    20  1.530     0     0     0
 2012 259   107    39     1     0    20  1.530     0     0     0
 2012 260   108    40     1     0    20  1.530     0     0     0
 2012 261   109    41     1     0    20  1.530     0     0     0
 2012 262   110    42     1     0    20  1.530     0     0     0
 2012 263   111    43     1     0    20  1.530     0     0     0
 2012 264   112    44     1     0    20  1.530     0     0     0
 2012 265   113    45     1     0    20  1.530     0     0     0
 2012 266   114    46     1     0    20  1.530     0     0     0
 2012 267   115    47     1     0    20  1.530     0     0     0
 2012 268   116    48     1     0    20  1.530     0     0     0
 2012 269   117    49     1     0    20  1.530     0     0     0
 2012 270   118    50     1     0    20  1.530     0     0     0
 2012 271   119    51     1     0    20  1.530     0     0     0
 2012 272   120    52     1     0    20  1.530     0     0     0
 2012 273   121    53     1     0    20  1.530     0     0     0
 2012 274   122    54     1     0    20  1.530     0     0     0
 2012 275   123    55     1     0    20  1.530     0     0     0
 2012 276   124    56     1     0    20  1.530     0     0     0
 2012 277   125    57     1     0    20  1.530     0     0     0
 2012 278   126    58     1     0    20  1.530     0     0     0
 2012 279   127    59     1     0    20  1.530     0     0     0
 2012 280   128    60     1     0    20  1.530     0     0     0
 2012 281   129    61     1     0    20  1.530     0     0     0
 2012 282   130    62     1     0    20  1.530     0     0     0
 2012 283   131    63     1     0    20  1.530     0     0     0
 2012 284   132    64     1     0    20  1.530     0     0     0
 2012 285   133    65     1     0    20  1.530     0     0     0
 2012 286   134    66     1     0    20  1.530     0     0     0
 2012 287   135    67     1     0    20  1.530     0     0     0
 2012 288   136    68     1     0    20  1.530     0     0     0
 2012 289   137    69     1     0    20  1.530     0     0     0
 2012 290   138    70     1     0    20  1.530     0     0     0
 2012 291   139    71     1     0    20  1.530     0     0     0
 2012 292   140    72     1     0    20  1.530     0     0     0
 2012 293   141    73     1     0    20  1.530     0     0     0
 2012 294   142    74     1     0    20  1.530     0     0     0
 2012 295   143    75     1     0    20  1.530     0     0     0
 2012 296   144    76     1     0    20  1.530     0     0     0
 2012 297   145    77     1     0    20  1.530     0     0     0
 2012 298   146    78     1     0    20  1.530     0     0     0
 2012 299   147    79     1     0    20  1.530     0     0     0
 2012 300   148    80     1     0    20  1.530     0     0     0
 2012 301   149    81     1     0    20  1.530     0     0     0
 2012 302   150    82     1     0    20  1.530     0     0     0
 2012 303   151    83     1     0    20  1.530     0     0     0
 2012 304   152    84     1     0    20  1.530     0     0     0
 2012 305   153    85     1     0    20  1.530     0     0     0
 2012 306   154    86     1     0    20  1.530     0     0     0
 2012 307   155    87     1     0    20  1.530     0     0     0
 2012 308   156    88     1     0    20  1.530     0     0     0
 2012 309   157    89     1     0    20  1.530     0     0     0
 2012 310   158    90     1     0    20  1.530     0     0     0
 2012 311   159    91     1     0    20  1.530     0     0     0
 2012 312   160    92     1     0    20  1.530     0     0     0
 2012 313   161    93     1     0    20  1.530     0     0     0
 2012 314   162    94     1     0    20  1.530     0     0     0
 2012 315   163    95     1     0    20  1.530     0     0     0
 2012 316   164    96     1     0    20  1.530     0     0     0
 2012 317   165    97     1     0    20  1.530     0     0     0
 2012 318   166    98     1     0    20  1.530     0     0     0
 2012 319   167    99     1     0    20  1.530     0     0     0
 2012 320   168   100     1     0    20  1.530     0     0     0
 2012 321   169   101     1     0    20  1.530     0     0     0
 2012 322   170   102     1     0    20  1.530     0     0     0
 2012 323   171   103     1     0    20  1.530     0     0     0
 2012 324   172   104     1     0    20  1.530     0     0     0
 2012 325   173   105     1     0    20  1.530     0     0     0
 2012 326   174   106     1     0    20  1.530     0     0     0
 2012 327   175   107     1     0    20  1.530     0     0     0
 2012 328   176   108     1     0    20  1.530     0     0     0
 2012 329   177   109     1     0    20  1.530     0     0     0
 2012 330   178   110     1     0    20  1.530     0     0     0
 2012 331   179   111     1     0    20  1.530     0     0     0
 2012 332   180   112     1     0    20  1.530     0     0     0
 2012 333   181   113     1     0    20  1.530     0     0     0
