*GROWTH ASPECTS OUTPUT FILE

*DSSAT Cropping System Model Ver. 4.8.2.000 -release  FEB 18, 2025 01:32:02

*RUN   1        : F1 NE 4                   RICER048 CRDA1201    1
 MODEL          : RICER048 - Rice
 EXPERIMENT     : CRDA1201 WH ESSAI VARIETE DAROU PAKA 2012
 DATA PATH      :
 TREATMENT  1   : F1 NE 4                   RICER048
  
!YR        Days  Days              Leaf  <--------- Dry Weight -----------> Grain Kernl              <------ Stress (0-1) ------>   Leaf  Shell  Spec  <-Canopy->  Root  <-- Root Length Density ---><Senesced Mat>   Phot  
!  and    after after  Leaf  Grow  Area  <------------ kg/Ha ------------->   per  wght  Harv Tillr  <--- Water ---->                Nit   -ing  Leaf  Hght Brdth Depth  <---- cm3/cm3 of soil -----> <--(kg/ha)-->  Therm  
!     DOY start plant   Num Stage Index  Leaf  Stem Grain  Root Panic  Crop    m2    mg  Indx   No.  Phot  Grow  Excs  Nitr Potas     %      %   Area    m     m     m    0-5  5-15 15-20 20-4747-100   Surf   Soil   Days  
@YEAR DOY   DAS   DAP  L#SD  GSTD  LAID  LWAD  SWAD  GWAD  RWAD  EWAD  CWAD  G#AD  GWGD  HIAD  T#AD  WSPD  WSGD  EWSD  NSTD  KSTD   LN%D   SH%D  SLAD  CHTD  CWID  RDPD  RL1D  RL2D  RL3D  RL4D  RL5D  SNW0C  SNW1C   DTTC  
 2012 220    68     0   0.0     0  0.00     1     1     0     1     0     1     0   0.0 0.000    60 0.000 0.000 0.000 0.000 0.000   0.00   0.00   0.0  0.00  0.00  0.02  0.00  0.00  0.00  0.00  0.00      0      0     19
 2012 221    69     1   0.0     0  0.00     1     1     0     1     0     1     0   0.0 0.000    60 0.000 0.000 0.000 0.000 0.000   0.00   0.00   0.0  0.00  0.00  0.02  0.00  0.00  0.00  0.00  0.00      0      0     36
 2012 222    70     2   0.0     0  0.00     1     1     0     1     0     1     0   0.0 0.000    60 0.000 0.000 0.000 0.000 0.000   0.00   0.00   0.0  0.00  0.00  0.02  0.00  0.00  0.00  0.00  0.00      0      0     54
 2012 223    71     3   0.0     0  0.00     1     1     0     1     0     1     0   0.0 0.000    60 0.000 0.000 0.000 0.000 0.000   0.00   0.00   0.0  0.00  0.00  0.05  0.00  0.00  0.00  0.00  0.00      0      0     72
 2012 224    72     4   1.0     1  0.01     2     1     0     1     0     2     0   0.0 0.000    60 0.000 0.000 0.000 0.000 0.000   0.00   0.00 288.3  0.00  0.00  0.08  0.76  0.50  0.00  0.00  0.00      0      0     91
 2012 225    73     5   1.0     1  0.01     3     1     0     1     0     4     0   0.0 0.000    60 0.000 0.000 0.000 0.000 0.000   0.00   0.00 245.3  0.00  0.00  0.08  0.76  0.50  0.00  0.00  0.00      0      0    110
 2012 226    74     6   1.0     1  0.01     4     1     0     1     0     5     0   0.0 0.000    60 0.000 0.000 0.000 0.000 0.000   0.00   0.00 226.9  0.00  0.00  0.11  0.76  0.50  0.00  0.00  0.00      0      0    128
 2012 227    75     7   2.0     1  0.01     6     1     0     2     0     6     0   0.0 0.000    60 0.000 0.000 0.000 0.000 0.000   0.00   0.00 215.9  0.00  0.00  0.14  0.76  0.50  0.00  0.00  0.00      0      0    146
 2012 228    76     8   2.0     1  0.01     7     1     0     2     0     8     0   0.0 0.000    60 0.000 0.000 0.000 0.000 0.000   0.00   0.00 208.7  0.00  0.00  0.17  0.76  0.50  0.00  0.00  0.00      0      0    164
 2012 229    77     9   3.0     1  0.02     9     1     0     3     0     9     0   0.0 0.000    60 0.000 0.000 0.000 0.000 0.000   0.00   0.00 203.5  0.00  0.00  0.21  0.76  0.50  0.00  0.00  0.00      0      0    182
 2012 230    78    10   3.0     1  0.02    10     1     0     3     0    11     0   0.0 0.000    60 0.000 0.000 0.000 0.000 0.000   0.00   0.00 200.0  0.00  0.00  0.24  0.75  0.50  0.01  0.00  0.00      0      0    199
 2012 231    79    11   3.0     1  0.02    12     1     0     5     0    13     0   0.0 0.000    60 0.000 0.000 0.000 0.000 0.000   0.00   0.00 197.1  0.00  0.00  0.27  0.75  0.50  0.01  0.00  0.00      0      0    217
 2012 232    80    12   4.0     1  0.03    15     1     0     6     0    15     0   0.0 0.000    60 0.000 0.000 0.000 0.000 0.000   0.00   0.00 194.9  0.00  0.00  0.30  0.76  0.51  0.02  0.00  0.00      0      0    235
 2012 233    81    13   4.0     1  0.03    17     1     0     8     0    17     0   0.0 0.000    60 0.000 0.000 0.000 0.000 0.000   0.00   0.00 193.1  0.00  0.00  0.34  0.76  0.51  0.02  0.00  0.00      0      0    254
 2012 234    82    14   4.0     1  0.04    19     1     0    10     0    20     0   0.0 0.000    60 0.000 0.000 0.000 0.000 0.000   0.00   0.00 191.8  0.00  0.00  0.37  0.76  0.52  0.03  0.00  0.00      0      0    273
 2012 235    83    15   5.0     1  0.04    22     1     0    11     0    23     0   0.0 0.000    60 0.000 0.000 0.000 0.000 0.000   0.00   0.00 204.2  0.00  0.00  0.41  0.77  0.52  0.04  0.01  0.00      0      0    291
 2012 236    84    16   5.0     1  0.05    25     1     0    13     0    25     0   0.0 0.000   131 0.000 0.000 0.000 0.000 0.000   0.00   0.00 201.6  0.00  0.00  0.44  0.77  0.52  0.04  0.01  0.00      0      0    309
 2012 237    85    17   5.0     1  0.06    28     1     0    15     0    29     0   0.0 0.000   138 0.000 0.000 0.000 0.000 0.000   0.00   0.00 199.3  0.00  0.00  0.47  0.77  0.53  0.05  0.01  0.00      0      0    328
 2012 238    86    18   6.0     1  0.06    32     1     0    17     0    32     0   0.0 0.000   144 0.000 0.000 0.000 0.000 0.000   0.00   0.00 197.4  0.00  0.00  0.51  0.78  0.53  0.06  0.01  0.00      0      0    347
 2012 239    87    19   6.0     1  0.07    34     1     0    18     0    35     0   0.0 0.000   144 0.000 0.000 0.000 0.000 0.000   0.00   0.00 196.1  0.00  0.00  0.54  0.78  0.54  0.06  0.01  0.00      0      0    365
 2012 240    88    20   6.0     1  0.08    39     1     0    20     0    39     0   0.0 0.000   154 0.000 0.000 0.000 0.000 0.000   0.00   0.00 194.5  0.00  0.00  0.57  0.78  0.54  0.07  0.01  0.00      0      0    383
 2012 241    89    21   6.0     1  0.08    43     1     0    23     0    44     0   0.0 0.000   159 0.000 0.000 0.000 0.000 0.000   0.00   0.00 193.1  0.00  0.00  0.60  0.78  0.54  0.08  0.02  0.00      0      0    402
 2012 242    90    22   7.0     1  0.09    49     1     0    26     0    49     0   0.0 0.000   164 0.000 0.000 0.000 0.000 0.000   0.00   0.00 189.3  0.00  0.00  0.64  0.79  0.55  0.08  0.02  0.00      0      0    421
 2012 243    91    23   7.0     1  0.10    52     1     0    28     0    53     0   0.0 0.000   164 0.000 0.000 0.000 0.000 0.000   0.00   0.00 188.7  0.00  0.00  0.67  0.79  0.56  0.09  0.02  0.01      0      0    438
 2012 244    92    24   7.0     1  0.11    59     1     0    31     0    59     0   0.0 0.000   175 0.000 0.000 0.000 0.000 0.000   0.00   0.00 186.3  0.00  0.00  0.70  0.80  0.56  0.10  0.02  0.01      0      0    456
 2012 245    93    25   7.0     1  0.12    65     1     0    35     0    66     0   0.0 0.000   182 0.000 0.000 0.000 0.000 0.000   0.00   0.00 183.8  0.00  0.00  0.73  0.80  0.57  0.11  0.03  0.01      0      0    475
 2012 246    94    26   8.0     1  0.13    69     1     0    37     0    70     0   0.0 0.000   182 0.000 0.000 0.000 0.000 0.000   0.00   0.00 183.7  0.00  0.00  0.77  0.81  0.58  0.12  0.03  0.01      0      0    491
 2012 247    95    27   8.0     1  0.14    75     1     0    40     0    76     0   0.0 0.000   194 0.000 0.000 0.000 0.000 0.000   0.00   0.00 183.5  0.00  0.00  0.80  0.81  0.58  0.13  0.03  0.02      0      0    509
 2012 248    96    28   8.0     1  0.15    84     1     0    45     0    85     0   0.0 0.000   205 0.000 0.000 0.000 0.000 0.000   0.00   0.00 181.1  0.00  0.00  0.83  0.82  0.59  0.14  0.04  0.02      0      0    527
 2012 249    97    29   8.0     1  0.17    92     1     0    49     0    93     0   0.0 0.000   217 0.000 0.000 0.000 0.000 0.000   0.00   0.00 179.6  0.00  0.00  0.86  0.83  0.60  0.15  0.04  0.02      0      0    546
 2012 250    98    30   9.0     1  0.18   102     1     0    54     0   102     0   0.0 0.000   230 0.000 0.140 0.000 0.000 0.000   0.00   0.00 176.2  0.00  0.00  0.89  0.84  0.61  0.16  0.04  0.03      0      0    564
 2012 251    99    31   9.0     1  0.19   113     1     0    61     0   113     0   0.0 0.000   239 0.118 0.412 0.000 0.000 0.000   0.00   0.00 167.4  0.00  0.00  0.93  0.84  0.62  0.17  0.05  0.03      0      0    583
 2012 252   100    32   9.0     1  0.20   120     1     0    64     0   121     0   0.0 0.000   250 0.000 0.000 0.000 0.000 0.000   0.00   0.00 167.3  0.00  0.00  0.96  0.86  0.63  0.19  0.05  0.04      0      0    601
 2012 253   101    33   9.0     1  0.21   132     1     0    71     0   133     0   0.0 0.000   262 0.088 0.392 0.000 0.000 0.000   0.00   0.00 160.6  0.00  0.00  0.99  0.86  0.64  0.20  0.05  0.04      0      0    619
 2012 254   102    34  10.0     1  0.22   143     1     0    77     0   144     0   0.0 0.000   274 0.221 0.480 0.000 0.000 0.000   0.00   0.00 153.3  0.00  0.00  1.00  0.86  0.66  0.22  0.06  0.04      0      0    638
 2012 255   103    35  10.0     1  0.23   155     1     0    83     0   155     0   0.0 0.000   287 0.125 0.417 0.000 0.000 0.000   0.00   0.00 148.1  0.00  0.00  1.00  0.88  0.67  0.23  0.06  0.05      0      0    656
 2012 256   104    36  10.0     2  0.25   170    26     0    89     0   196     0   0.0 0.000   317 0.000 0.000 0.000 0.000 0.000   0.00   0.00 149.7  0.00  0.00  1.00  0.89  0.68  0.25  0.07  0.05      1      0    674
 2012 257   105    37  10.0     2  0.28   183    38     0    95     0   221     0   0.0 0.000   349 0.000 0.000 0.000 0.000 0.000   0.00   0.00 151.0  0.00  0.00  1.00  0.90  0.70  0.26  0.07  0.06      1      0    693
 2012 258   106    38  11.0     2  0.30   200    52     0   101     0   251     0   0.0 0.000   384 0.000 0.000 0.000 0.000 0.000   0.00   0.00 152.2  0.00  0.00  1.00  0.91  0.71  0.28  0.08  0.06      1      0    711
 2012 259   107    39  11.0     2  0.33   216    66     0   108     0   282     0   0.0 0.000   419 0.000 0.000 0.000 0.000 0.000   0.00   0.00 153.3  0.00  0.00  1.00  0.92  0.72  0.29  0.08  0.07      1      0    728
 2012 260   108    40  11.0     2  0.35   229    78     0   113     0   307     0   0.0 0.000   444 0.000 0.000 0.000 0.000 0.000   0.00   0.00 154.1  0.00  0.00  1.00  0.94  0.74  0.31  0.09  0.07      1      0    745
 2012 261   109    41  11.0     2  0.39   250    96     0   122     0   345     0   0.0 0.000   483 0.000 0.000 0.000 0.000 0.000   0.00   0.00 155.1  0.00  0.00  1.00  0.95  0.75  0.32  0.09  0.08      1      0    762
 2012 262   110    42  11.0     2  0.42   271   113     0   130     0   384     0   0.0 0.000   525 0.000 0.000 0.000 0.000 0.000   0.00   0.00 156.0  0.00  0.00  1.00  0.97  0.77  0.35  0.10  0.08      1      0    778
 2012 263   111    43  12.0     2  0.46   295   135     0   140     0   430     0   0.0 0.000   568 0.000 0.000 0.000 0.000 0.000   0.00   0.00 156.9  0.00  0.00  1.00  0.98  0.79  0.37  0.10  0.09      2      0    795
 2012 264   112    44  12.0     2  0.50   317   162     0   151     0   479     0   0.0 0.000   606 0.000 0.189 0.000 0.000 0.000   0.00   0.00 157.6  0.00  0.00  1.00  1.01  0.81  0.39  0.11  0.10      2      0    813
 2012 265   113    45  12.0     3  0.51   325   179     0   154     0   504     0   0.0 0.000   624 0.000 0.000 0.000 0.000 0.000   0.00   0.00 157.9  0.00  0.00  1.00  1.03  0.83  0.42  0.12  0.11      2      0    829
 2012 266   114    46  12.0     3  0.55   347   211     0   162     0   559     0   0.0 0.000   676 0.000 0.000 0.000 0.000 0.000   0.00   0.00 159.2  0.00  0.00  1.00  1.04  0.84  0.43  0.12  0.11      2      0    846
 2012 267   115    47  12.0     3  0.59   370   247     0   171     0   618     0   0.0 0.000   730 0.000 0.000 0.000 0.000 0.000   0.00   0.00 160.4  0.00  0.00  1.00  1.05  0.86  0.45  0.13  0.12      2      0    864
 2012 268   116    48  13.0     3  0.63   390   283     0   179     0   673     0   0.0 0.000   787 0.000 0.000 0.000 0.000 0.000   0.00   0.00 161.4  0.00  0.00  1.00  1.07  0.88  0.47  0.14  0.12      2      0    882
 2012 269   117    49  13.0     3  0.66   408   325     0   187     0   733     0   0.0 0.000   829 0.000 0.247 0.000 0.000 0.000   0.00   0.00 162.3  0.00  0.00  1.00  1.09  0.90  0.49  0.14  0.13      2      0    900
 2012 270   118    50  13.0     3  0.71   435   368     0   198     0   803     0   0.0 0.000   829 0.000 0.000 0.000 0.000 0.000   0.00   0.00 163.4  0.00  0.00  1.00  1.11  0.92  0.51  0.15  0.14      3      0    917
 2012 271   119    51  13.0     3  0.74   451   419     0   208     0   870     0   0.0 0.000   829 0.119 0.412 0.000 0.000 0.000   0.00   0.00 163.1  0.00  0.00  1.00  1.13  0.94  0.54  0.16  0.14      3      0    935
 2012 272   120    52  13.0     3  0.74   459   459     0   214     0   918     0   0.0 0.000   824 0.350 0.567 0.000 0.000 0.000   0.00   0.00 160.7  0.00  0.00  1.00  1.16  0.97  0.57  0.17  0.15      3      0    953
 2012 273   121    53  13.0     3  0.73   464   494     0   219     0   958     0   0.0 0.000   811 0.477 0.651 0.000 0.000 0.000   0.00   0.00 157.2  0.00  0.00  1.00  1.17  0.98  0.58  0.17  0.16      5      0    971
 2012 274   122    54  14.0     3  0.77   487   529     0   227     0  1016     0   0.0 0.000   793 0.000 0.000 0.000 0.000 0.000   0.00   0.00 158.1  0.00  0.00  1.00  1.18  1.00  0.60  0.17  0.16      6      0    987
 2012 275   123    55  14.0     3  0.81   507   565     0   235     0  1073     0   0.0 0.000   793 0.000 0.000 0.000 0.000 0.000   0.00   0.00 158.8  0.00  0.00  1.00  1.20  1.01  0.62  0.18  0.17      7      0   1005
 2012 276   124    56  14.0     3  0.84   527   614     0   245     0  1141     0   0.0 0.000   793 0.000 0.191 0.000 0.000 0.000   0.00   0.00 159.5  0.00  0.00  1.00  1.22  1.03  0.64  0.19  0.17      8      0   1023
 2012 277   125    57  14.0     3  0.86   539   662     0   253     0  1201     0   0.0 0.000   792 0.141 0.427 0.000 0.000 0.000   0.00   0.00 158.9  0.00  0.00  1.00  1.24  1.06  0.67  0.20  0.18      9      0   1041
 2012 278   126    58  14.0     3  0.85   542   694     0   257     0  1236     0   0.0 0.000   787 0.605 0.737 0.000 0.000 0.000   0.00   0.00 156.6  0.00  0.00  1.00  1.25  1.08  0.69  0.20  0.19     11      0   1057
 2012 279   127    59  14.0     3  0.84   544   723     0   259     0  1267     0   0.0 0.000   765 0.626 0.751 0.000 0.000 0.000   0.00   0.00 154.3  0.00  0.00  1.00  1.25  1.09  0.70  0.21  0.19     12      0   1074
 2012 280   128    60  15.0     3  0.83   547   753     0   263     0  1300     0   0.0 0.000   743 0.469 0.646 0.000 0.000 0.000   0.00   0.00 151.0  0.00  0.00  1.00  1.24  1.10  0.71  0.21  0.20     15      0   1092
 2012 281   129    61  15.0     3  0.82   548   776     0   264     0  1324     0   0.0 0.000   727 0.722 0.814 0.000 0.000 0.000   0.00   0.00 148.7  0.00  0.00  1.00  1.24  1.11  0.73  0.21  0.20     18      0   1109
 2012 282   130    62  15.0     3  0.80   549   793     0   265     0  1341     0   0.0 0.000   703 0.789 0.859 0.000 0.000 0.000   0.00   0.00 146.3  0.00  0.00  1.00  1.23  1.11  0.73  0.22  0.20     21      0   1124
 2012 283   131    63  15.0     3  0.79   549   810     0   266     0  1359     0   0.0 0.000   678 0.775 0.850 0.000 0.000 0.000   0.00   0.00 143.9  0.00  0.00  1.00  1.22  1.12  0.74  0.22  0.20     24      0   1140
 2012 284   132    64  15.0     3  0.78   550   826     0   266     0  1376     0   0.0 0.000   654 0.795 0.863 0.000 0.000 0.000   0.00   0.00 141.5  0.00  0.00  1.00  1.22  1.12  0.74  0.22  0.21     28      0   1156
 2012 285   133    65  15.0     3  0.76   550   843     0   266     0  1393     0   0.0 0.000   630 0.762 0.842 0.000 0.000 0.000   0.00   0.00 139.1  0.00  0.00  1.00  1.21  1.12  0.75  0.22  0.21     32      0   1174
 2012 286   134    66  15.0     3  0.75   550   857     0   266     0  1407     0   0.0 0.000   608 0.823 0.882 0.000 0.000 0.000   0.00   0.00 136.7  0.00  0.00  1.00  1.20  1.12  0.75  0.22  0.21     37      0   1190
 2012 287   135    67  16.0     3  0.74   550   870     0   266     0  1420     0   0.0 0.000   586 0.830 0.886 0.000 0.000 0.000   0.00   0.00 134.2  0.00  0.00  1.00  1.20  1.12  0.76  0.22  0.21     41      0   1206
 2012 288   136    68  16.0     3  0.72   549   882     0   265     0  1432     0   0.0 0.000   564 0.846 0.897 0.000 0.000 0.000   0.00   0.00 131.8  0.00  0.00  1.00  1.19  1.12  0.76  0.22  0.21     47      0   1222
 2012 289   137    69  16.0     3  0.71   549   893     0   265     0  1442     0   0.0 0.000   543 0.854 0.903 0.000 0.000 0.000   0.00   0.00 129.3  0.00  0.00  1.00  1.19  1.12  0.76  0.22  0.21     52      0   1237
 2012 290   138    70  16.0     3  0.70   549   903     0   264     0  1452     0   0.0 0.000   522 0.869 0.913 0.000 0.000 0.000   0.00   0.00 126.9  0.00  0.00  1.00  1.18  1.12  0.76  0.23  0.21     58      0   1251
 2012 291   139    71  16.0     3  0.68   549   913     0   263     0  1462     0   0.0 0.000   502 0.858 0.905 0.000 0.000 0.000   0.00   0.00 124.4  0.00  0.00  1.00  1.17  1.12  0.77  0.23  0.21     64      0   1268
 2012 292   140    72  16.0     3  0.67   549   924     0   262     0  1472     0   0.0 0.000   483 0.855 0.904 0.000 0.000 0.000   0.00   0.00 122.0  0.00  0.00  1.00  1.17  1.11  0.77  0.23  0.21     71      0   1284
 2012 293   141    73  16.0     3  0.66   548   933     0   261     0  1482     0   0.0 0.000   465 0.855 0.903 0.000 0.000 0.000   0.00   0.00 119.5  0.00  0.00  1.00  1.17  1.11  0.77  0.23  0.21     78      0   1299
 2012 294   142    74  16.0     4  0.65   548   995     0   269     0  1543     0   0.0 0.000   458 0.000 0.000 0.000 0.000 0.000   0.00   0.00 118.9  0.00  0.00  1.00  1.17  1.11  0.77  0.23  0.21     85      0   1315
 2012 295   143    75  16.0     4  0.65   548  1047     0   276     0  1595     0   0.0 0.000   452 0.000 0.000 0.000 0.000 0.000   0.00   0.00 118.3  0.00  0.00  1.00  1.19  1.13  0.79  0.23  0.22     92      0   1331
 2012 296   144    76  16.0     4  0.65   548  1104     0   283     0  1652     0   0.0 0.000   444 0.000 0.200 0.000 0.000 0.000   0.00   0.00 117.8  0.00  0.00  1.00  1.20  1.15  0.81  0.24  0.23     99      0   1349
 2012 297   145    77  16.0     4  0.63   548  1147     0   288     0  1695     0   0.0 0.000   434 0.372 0.581 0.000 0.000 0.000   0.00   0.00 115.6  0.00  0.00  1.00  1.22  1.17  0.83  0.24  0.23    107      0   1365
 2012 298   146    78  16.0     4  0.62   547  1180     0   291     0  1727     0   0.0 0.000   422 0.478 0.652 0.000 0.000 0.000   0.00   0.00 112.9  0.00  0.00  1.00  1.22  1.18  0.84  0.25  0.24    115      0   1381
 2012 299   147    79  16.0     4  0.60   547  1204     0   292     0  1751     0   0.0 0.000   410 0.618 0.746 0.000 0.000 0.000   0.00   0.00 109.6  0.00  0.00  1.00  1.22  1.19  0.85  0.25  0.24    123      0   1396
 2012 300   148    80  16.0     4  0.58   546  1226     0   293     0  1772     0   0.0 0.000   398 0.628 0.752 0.000 0.000 0.000   0.00   0.00 106.2  0.00  0.00  1.00  1.21  1.19  0.86  0.25  0.24    132      0   1412
 2012 301   149    81  16.0     4  0.56   546  1243     0   293     0  1789     0   0.0 0.000   385 0.707 0.805 0.000 0.000 0.000   0.00   0.00 102.5  0.00  0.00  1.00  1.21  1.20  0.87  0.26  0.24    141      0   1427
 2012 302   150    82  16.0     5  0.54   546  1243    22   294    22  1810     1 ***** 0.012   385 0.555 0.703 0.000 0.000 0.000   0.00   0.00  99.8  0.00  0.00  1.00  1.20  1.20  0.87  0.26  0.25    151      0   1445
 2012 303   151    83  16.0     5  0.52   545  1243    37   295    37  1825     1 ***** 0.020   385 0.730 0.820 0.000 0.000 0.000   0.00   0.00  96.2  0.00  0.00  1.00  1.19  1.21  0.88  0.26  0.25    161      0   1460
 2012 304   152    84  16.0     5  0.50   545  1243    50   294    50  1837     2 ***** 0.027   385 0.763 0.842 0.000 0.000 0.000   0.00   0.00  92.6  0.00  0.00  1.00  1.19  1.21  0.88  0.26  0.25    172      0   1475
 2012 305   153    85  16.0     5  0.48   544  1243    61   294    61  1848     2 ***** 0.033   385 0.794 0.863 0.000 0.000 0.000   0.00 100.00  89.0  0.00  0.00  1.00  1.18  1.21  0.89  0.26  0.25    183      0   1489
 2012 306   154    86  16.0     5  0.47   544  1243    72   293    72  1858     2 ***** 0.039   385 0.773 0.849 0.000 0.000 0.000   0.00 100.00  85.7  0.00  0.00  1.00  1.18  1.21  0.89  0.26  0.25    195      0   1504
 2012 307   155    87  16.0     5  0.45   543  1243    82   293    82  1868     3 ***** 0.044   385 0.775 0.850 0.000 0.000 0.000   0.00 100.00  82.4  0.00  0.00  1.00  1.17  1.21  0.89  0.26  0.25    207      0   1519
 2012 308   156    88  16.0     5  0.43   543  1243    91   292    91  1877     3 ***** 0.049   385 0.782 0.855 0.000 0.000 0.000   0.00 100.00  79.3  0.00  0.00  1.00  1.16  1.20  0.89  0.26  0.25    220      0   1534
 2012 309   157    89  16.0     5  0.41   542  1243    99   290    99  1884     3 ***** 0.053   385 0.814 0.876 0.000 0.000 0.000   0.00 100.00  76.1  0.00  0.00  1.00  1.16  1.20  0.89  0.26  0.25    233      0   1548
 2012 310   158    90  16.0     5  0.40   542  1243   106   289   106  1891     4 ***** 0.056   385 0.819 0.879 0.000 0.000 0.000   0.00 100.00  73.0  0.00  0.00  1.00  1.15  1.20  0.89  0.27  0.25    246      0   1561
 2012 311   159    91  16.0     5  0.38   541  1243   113   288   113  1898     4 ***** 0.060   385 0.811 0.874 0.000 0.000 0.000   0.00 100.00  70.1  0.00  0.00  1.00  1.15  1.19  0.90  0.27  0.25    260      0   1575
 2012 312   160    92  16.0     5  0.36   541  1243   120   286   120  1904     4 ***** 0.063   385 0.798 0.866 0.000 0.000 0.000   0.00 100.00  67.4  0.00  0.00  1.00  1.14  1.19  0.89  0.27  0.25    274      0   1590
 2012 313   161    93  16.0     5  0.35   541  1243   126   285   126  1910     4 ***** 0.066   385 0.809 0.873 0.000 0.000 0.000   0.00 100.00  64.7  0.00  0.00  1.00  1.14  1.19  0.89  0.27  0.25    289      0   1603
 2012 314   162    94  16.0     5  0.34   540  1243   132   283   132  1915     4 ***** 0.069   385 0.824 0.883 0.000 0.000 0.000   0.00 100.00  62.1  0.00  0.00  1.00  1.13  1.18  0.89  0.27  0.25    304      0   1615
 2012 315   163    95  16.0     5  0.32   540  1243   137   282   137  1920     5 ***** 0.071   385 0.831 0.887 0.000 0.000 0.000   0.00 100.00  59.5  0.00  0.00  1.00  1.12  1.18  0.89  0.27  0.25    319      0   1627
 2012 316   164    96  16.0     5  0.31   540  1243   143   280   143  1925     5 ***** 0.074   385 0.821 0.881 0.000 0.000 0.000   0.00 100.00  57.1  0.00  0.00  1.00  1.12  1.17  0.89  0.27  0.25    334      0   1639
 2012 317   165    97  16.0     5  0.30   539  1243   147   278   147  1929     5 ***** 0.076   385 0.830 0.887 0.000 0.000 0.000   0.00 100.00  54.8  0.00  0.00  1.00  1.11  1.17  0.89  0.27  0.25    350      0   1651
 2012 318   166    98  16.0     5  0.28   539  1243   152   277   152  1934     5 ***** 0.079   385 0.818 0.878 0.000 0.000 0.000   0.00 100.00  52.6  0.00  0.00  1.00  1.11  1.16  0.89  0.27  0.25    367      0   1664
 2012 319   167    99  16.0     5  0.27   539  1243   156   275   156  1937     5 ***** 0.080   385 0.837 0.892 0.000 0.000 0.000   0.00 100.00  50.4  0.00  0.00  1.00  1.10  1.16  0.88  0.27  0.25    383      0   1676
 2012 320   168   100  16.0     5  0.26   539  1243   161   273   161  1942     5 ***** 0.083   385 0.742 0.828 0.000 0.000 0.000   0.00 100.00  48.5  0.00  0.00  1.00  1.10  1.15  0.88  0.27  0.25    400      0   1688
 2012 321   169   101  16.0     5  0.25   538  1243   165   271   165  1946     5 ***** 0.085   385 0.795 0.863 0.000 0.000 0.000   0.00 100.00  46.6  0.00  0.00  1.00  1.09  1.14  0.88  0.26  0.25    417      0   1700
 2012 322   170   102  16.0     5  0.24   538  1243   168   269   168  1949     6 ***** 0.086   385 0.832 0.888 0.000 0.000 0.000   0.00 100.00  44.7  0.00  0.00  1.00  1.09  1.14  0.88  0.26  0.25    434      0   1713
 2012 323   171   103  16.0     5  0.23   538  1243   172   267   172  1952     6 ***** 0.088   385 0.811 0.874 0.000 0.000 0.000   0.00 100.00  42.9  0.00  0.00  1.00  1.08  1.13  0.87  0.26  0.25    452      0   1727
 2012 324   172   104  16.0     5  0.22   538  1243   176   266   176  1957     6 ***** 0.090   385 0.654 0.769 0.000 0.000 0.000   0.00 100.00  41.5  0.00  0.00  1.00  1.07  1.13  0.87  0.26  0.25    470      0   1744
 2012 325   173   105  16.0     5  0.21   537  1243   180   264   180  1960     6 ***** 0.092   385 0.753 0.836 0.000 0.000 0.000   0.00 100.00  40.0  0.00  0.00  1.00  1.07  1.12  0.87  0.26  0.25    488      0   1761
 2012 326   174   106  16.0     5  0.21   537  1243   183   262   183  1963     6 ***** 0.093   385 0.784 0.856 0.000 0.000 0.000   0.00 100.00  38.4  0.00  0.00  1.00  1.06  1.12  0.86  0.26  0.25    506      0   1776
 2012 327   175   107  16.0     5  0.20   537  1243   186   260   186  1966     6 ***** 0.095   385 0.793 0.862 0.000 0.000 0.000   0.00 100.00  36.9  0.00  0.00  1.00  1.06  1.11  0.86  0.26  0.25    524      0   1791
 2012 328   176   108  16.0     5  0.19   537  1243   189   258   189  1969     6 ***** 0.096   385 0.746 0.830 0.000 0.000 0.000   0.00 100.00  35.6  0.00  0.00  1.00  1.05  1.10  0.86  0.26  0.25    543      0   1806
 2012 329   177   109  16.0     5  0.18   537  1243   192   256   192  1971     6 ***** 0.097   385 0.802 0.868 0.000 0.000 0.000   0.00 100.00  34.1  0.00  0.00  1.00  1.05  1.10  0.85  0.26  0.25    562      0   1820
 2012 330   178   110  16.0     5  0.18   537  1243   194   254   194  1973     6 ***** 0.098   385 0.827 0.885 0.000 0.000 0.000   0.00 100.00  32.7  0.00  0.00  1.00  1.04  1.09  0.85  0.26  0.25    580      0   1833
 2012 331   179   111  16.0     6  0.18   537  1243   194   254   194  1973     6 ***** 0.098   385 0.825 0.884 0.000 0.000 0.000   0.00 100.00  32.7  0.00  0.00  1.00  1.04  1.09  0.85  0.26  0.25    580      0   1846
 2012 332   180   112  16.0    20  0.18   537  1243   194   254   194  1973     6 ***** 0.098   385 0.761 0.841 0.000 0.000 0.000   0.00 100.00  32.7  0.00  0.00  1.00  1.03  1.08  0.84  0.26  0.25    580      0   1846
 2012 333   181   113  16.0    20  0.18   537  1243   194   254   194  1973     6 ***** 0.098   385 0.708 0.805 0.000 0.000 0.000   0.00 100.00  32.7  0.00  0.00  1.00  1.03  1.08  0.84  0.26  0.25    580      0   1861
