*SOM C DAILY OUTPUT FILE

*DSSAT Cropping System Model Ver. 4.8.2.000 -release  FEB 18, 2025 01:32:02

*RUN   1        : F1 NE 4                   RICER048 CRDA1201    1
 MODEL          : RICER048 - Rice
 EXPERIMENT     : CRDA1201 WH ESSAI VARIETE DAROU PAKA 2012
 DATA PATH      :
 TREATMENT  1   : F1 NE 4                   RICER048
  
!                                                                                                                                                                                                                                                                                                                                                                                                                                                                                    Cumul.
!               <---- SOM C in top layers ----> <- SOM + LIT C in top layers -> <------------ Total Soil Organic Carbon (SOM + LIT) ------------> <--------- Active Soil Organic Carbon (SOM1) ---------> <---- Intermediate Soil Organic C (SOM2) -----> <------- Passive Soil Organic C (SOM3) -------> <------------------ Litter Carbon --------------------> <-------------- Metabolic Litter Carbon --------------> <------------- Structural Litter Carbon -------------->  Resid.  <-Accum. CO2->
!               20cm-kg  20cm-% 40cm-kg  40cm-% 20cm-kg  20cm-% 40cm-kg  40cm-%     Total Surface    Soil     0-5    5-15   15-20   20-47  47-100 Surface    Soil     0-5    5-15   15-20   20-47  47-100    Soil     0-5    5-15   15-20   20-47  47-100    Soil     0-5    5-15   15-20   20-47  47-100 Surface    Soil     0-5    5-15   15-20   20-47  47-100 Surface    Soil     0-5    5-15   15-20   20-47  47-100 Surface    Soil     0-5    5-15   15-20   20-47  47-100 (kg/ha) Surface    Soil
@YEAR DOY   DAS  SCS20D  SC%20D  SCS40D  SC%40D  SLC20D  SL%20D  SLC40D  SL%40D      SOCD    SC0D    SCTD    SC1D    SC2D    SC3D    SC4D   SC5+D   S1C0D   S1CTD   S1C1D   S1C2D   S1C3D   S1C4D  S1C5+D   S2CTD   S2C1D   S2C2D   S2C3D   S2C4D  S2C5+D   S3CTD   S3C1D   S3C2D   S3C3D   S3C4D  S3C5+D    LC0D    LCTD    LC1D    LC2D    LC3D    LC4D   LC5+D   MEC0D   MECTD   MEC1D   MEC2D   MEC3D   MEC4D  MEC5+D   STC0D   STCTD   STC1D   STC2D   STC3D   STC4D  STC5+D    RESC   CO20C   CO2SC
 2012 152     0    8405   0.275    8334   0.272    8446   0.276    8354   0.273     41861       0   41861    2303    4223    1920   11278   22138       0     306      37      53      16      67     133    5807     704    1006     301    1270    2526   35664    1549    3144    1595    9914   19462       0      84      12      20       8      27      17       0      69      10      16       7      22      14       0      15       2       4       1       5       3       0       0       0
 2012 153     1    8403   0.275    8333   0.272    8442   0.276    8352   0.273     41851       0   41851    2301    4221    1920   11275   22134       0     303      37      53      16      66     131    5805     704    1005     301    1269    2525   35664    1549    3144    1595    9914   19461       0      80      12      19       8      25      16       0      65      10      15       6      21      13       0      15       2       4       1       5       3       0       0       9
 2012 154     2    8402   0.275    8333   0.272    8438   0.276    8350   0.273     41842       0   41842    2300    4219    1919   11273   22131       0     300      36      52      16      66     130    5802     703    1005     301    1269    2524   35663    1549    3144    1595    9914   19461       0      76      11      18       7      24      16       0      61       9      14       6      19      12       0      15       2       4       1       5       3       0       0      19
 2012 155     3    8400   0.275    8332   0.272    8435   0.276    8349   0.273     41833       0   41833    2299    4217    1918   11271   22128       0     297      36      52      16      66     129    5800     703    1005     301    1268    2523   35663    1549    3144    1595    9914   19461       0      73      11      17       7      23      15       0      58       8      14       5      18      12       0      15       2       4       1       5       3       0       0      28
 2012 156     4    8398   0.274    8331   0.272    8431   0.276    8347   0.273     41824       0   41824    2298    4216    1918   11269   22124       0     294      36      51      15      65     127    5798     703    1004     301    1268    2522   35663    1549    3144    1595    9914   19461       0      69      10      16       7      22      14       0      54       8      13       5      17      11       0      15       2       4       1       5       3       0       0      37
 2012 157     5    8396   0.274    8330   0.272    8428   0.275    8346   0.273     41815       0   41815    2297    4214    1917   11266   22121       0     291      35      51      15      65     125    5796     703    1004     301    1267    2521   35662    1549    3144    1595    9914   19460       0      66      10      16       6      21      13       0      51       8      12       5      16      10       0      15       2       4       1       5       3       0       0      46
 2012 158     6    8395   0.274    8329   0.272    8425   0.275    8344   0.273     41806       0   41806    2296    4212    1917   11264   22117       0     288      35      50      15      64     124    5793     702    1003     301    1267    2520   35662    1549    3144    1595    9914   19460       0      63       9      15       6      20      13       0      48       7      11       4      15      10       0      15       2       4       1       5       3       0       0      55
 2012 159     7    8393   0.274    8328   0.272    8421   0.275    8342   0.273     41797       0   41797    2295    4210    1916   11262   22114       0     285      35      50      15      63     122    5791     702    1003     300    1266    2519   35661    1549    3144    1595    9913   19460       0      60       9      14       6      19      12       0      45       7      10       4      14       9       0      15       2       4       1       5       3       0       0      64
 2012 160     8    8391   0.274    8327   0.272    8418   0.275    8340   0.273     41788       0   41788    2294    4209    1915   11260   22110       0     282      35      49      15      63     121    5788     702    1002     300    1266    2518   35661    1549    3144    1595    9913   19460       0      57       9      13       5      18      12       0      42       7      10       4      13       9       0      15       2       4       1       5       3       0       0      73
 2012 161     9    8389   0.274    8326   0.272    8415   0.275    8339   0.273     41779       0   41779    2294    4207    1915   11257   22107       0     279      34      49      15      62     119    5786     702    1002     300    1265    2517   35660    1549    3144    1595    9913   19459       0      54       9      13       5      17      11       0      39       6       9       4      12       8       0      15       2       4       1       5       3       0       0      82
 2012 162    10    8387   0.274    8325   0.272    8412   0.275    8337   0.272     41770       0   41770    2293    4205    1914   11255   22103       0     276      34      48      15      61     117    5783     702    1001     300    1264    2516   35660    1549    3144    1595    9913   19459       0      52       8      12       5      16      11       0      37       6       9       3      11       8       0      15       2       4       1       5       3       0       0      91
 2012 163    11    8385   0.274    8324   0.272    8408   0.275    8335   0.272     41761       0   41761    2292    4203    1913   11253   22100       0     272      34      47      14      61     116    5780     701    1001     300    1264    2515   35659    1549    3144    1595    9913   19459       0      49       8      11       4      15      10       0      34       6       8       3      11       7       0      15       2       4       1       5       3       0       0     100
 2012 164    12    8382   0.274    8323   0.272    8405   0.275    8334   0.272     41752       0   41752    2290    4202    1913   11251   22096       0     269      33      47      14      60     114    5778     701    1000     300    1263    2514   35659    1549    3144    1595    9913   19459       0      47       7      11       4      15      10       0      32       5       7       3      10       7       0      15       2       4       1       5       3       0       0     109
 2012 165    13    8380   0.274    8322   0.272    8402   0.275    8332   0.272     41744       0   41744    2289    4200    1912   11249   22093       0     265      33      46      14      59     113    5775     700    1000     299    1263    2513   35658    1549    3144    1595    9913   19458       0      45       7      10       4      14       9       0      30       5       7       3       9       6       0      15       2       4       1       5       3       0       0     117
 2012 166    14    8378   0.274    8321   0.272    8399   0.274    8331   0.272     41736       0   41736    2288    4199    1912   11247   22090       0     262      32      46      14      59     112    5773     700     999     299    1262    2512   35658    1549    3144    1595    9912   19458       0      43       7      10       4      13       9       0      28       5       6       2       9       6       0      15       2       4       1       5       3       0       0     125
 2012 167    15    8376   0.274    8320   0.272    8396   0.274    8330   0.272     41728       0   41728    2288    4197    1911   11245   22087       0     259      32      45      14      58     110    5770     700     999     299    1262    2510   35657    1549    3144    1595    9912   19458       0      41       7      10       4      13       9       0      26       4       6       2       8       5       0      15       2       4       1       5       3       0       0     133
 2012 168    16    8374   0.274    8319   0.272    8393   0.274    8328   0.272     41720       0   41720    2287    4196    1911   11243   22084       0     256      32      44      14      57     109    5768     700     998     299    1261    2509   35657    1549    3144    1595    9912   19457       0      40       6       9       4      12       8       0      25       4       6       2       8       5       0      15       2       4       1       5       3       0       0     140
 2012 169    17    8372   0.274    8318   0.272    8391   0.274    8327   0.272     41713       0   41713    2286    4194    1910   11241   22081       0     253      32      44      13      57     107    5765     700     998     299    1260    2508   35656    1549    3143    1595    9912   19457       0      38       6       9       3      12       8       0      23       4       5       2       7       5       0      15       2       4       1       5       3       0       0     148
 2012 170    18    8371   0.274    8317   0.272    8388   0.274    8325   0.272     41705       0   41705    2286    4193    1910   11239   22078       0     250      31      43      13      56     106    5763     699     997     299    1260    2507   35656    1549    3143    1595    9912   19457       0      37       6       8       3      11       8       0      22       4       5       2       7       5       0      15       2       4       1       5       3       0       0     156
 2012 171    19    8369   0.273    8316   0.272    8386   0.274    8324   0.272     41698       0   41698    2286    4191    1909   11237   22075       0     247      31      43      13      55     105    5760     699     997     299    1259    2506   35655    1549    3143    1595    9912   19457       0      35       6       8       3      11       7       0      21       4       5       2       6       4       0      15       2       4       1       5       3       0       0     163
 2012 172    20    8367   0.273    8315   0.272    8384   0.274    8323   0.272     41691       0   41691    2285    4190    1909   11235   22071       0     244      31      42      13      55     103    5758     699     996     298    1259    2505   35655    1549    3143    1595    9912   19456       0      34       6       8       3      10       7       0      19       4       4       2       6       4       0      15       2       4       1       5       3       0       0     170
 2012 173    21    8365   0.273    8314   0.272    8382   0.274    8321   0.272     41684       0   41684    2285    4188    1908   11234   22068       0     241      31      42      13      54     102    5755     699     996     298    1258    2504   35654    1549    3143    1595    9911   19456       0      33       6       8       3      10       7       0      18       4       4       1       5       4       0      15       2       4       1       5       3       0       0     177
 2012 174    22    8364   0.273    8313   0.272    8380   0.274    8320   0.272     41677       0   41677    2285    4187    1908   11232   22065       0     239      31      41      13      53     101    5752     699     996     298    1257    2502   35654    1549    3143    1595    9911   19456       0      32       6       7       3      10       7       0      17       4       4       1       5       3       0      15       2       4       1       5       3       0       0     184
 2012 175    23    8362   0.273    8312   0.272    8378   0.274    8319   0.272     41671       0   41671    2285    4186    1908   11230   22063       0     236      31      41      12      53      99    5750     699     995     298    1257    2501   35653    1549    3143    1594    9911   19456       0      31       6       7       3       9       6       0      16       4       3       1       5       3       0      15       2       4       1       5       3       0       0     190
 2012 176    24    8361   0.273    8311   0.272    8376   0.274    8317   0.272     41664       0   41664    2284    4185    1907   11228   22060       0     233      31      40      12      52      98    5748     699     995     298    1256    2500   35653    1549    3143    1594    9911   19455       0      30       6       7       3       9       6       0      16       4       3       1       4       3       0      15       2       4       1       5       3       0       0     197
 2012 177    25    8360   0.273    8309   0.272    8374   0.274    8316   0.272     41658       0   41658    2284    4183    1907   11227   22057       0     231      31      40      12      51      97    5745     699     994     298    1256    2499   35652    1549    3143    1594    9911   19455       0      30       6       7       3       9       6       0      15       4       3       1       4       3       0      15       2       4       1       5       3       0       0     203
 2012 178    26    8358   0.273    8308   0.272    8373   0.274    8315   0.272     41652       0   41652    2284    4182    1906   11225   22054       0     228      31      39      12      51      96    5743     699     994     297    1255    2498   35652    1549    3143    1594    9911   19455       0      29       6       6       2       8       6       0      14       4       3       1       4       3       0      15       2       4       1       5       3       0       0     209
 2012 179    27    8357   0.273    8307   0.271    8371   0.274    8313   0.272     41645       0   41645    2284    4181    1906   11223   22051       0     226      31      39      12      50      94    5740     699     993     297    1254    2497   35651    1549    3143    1594    9911   19455       0      28       6       6       2       8       6       0      13       4       3       1       4       3       0      15       2       4       1       5       3       0       0     215
 2012 180    28    8355   0.273    8306   0.271    8370   0.274    8312   0.272     41639       0   41639    2284    4180    1905   11222   22048       0     223      31      38      12      50      93    5738     699     993     297    1254    2495   35651    1549    3143    1594    9910   19454       0      27       6       6       2       8       5       0      13       4       3       1       3       2       0      15       2       4       1       5       3       0       0     221
 2012 181    29    8353   0.273    8305   0.271    8367   0.273    8311   0.272     41632       0   41632    2283    4179    1905   11220   22045       0     220      30      38      12      49      92    5735     699     992     297    1253    2494   35650    1549    3143    1594    9910   19454       0      27       6       6       2       8       5       0      12       3       2       1       3       2       0      15       2       4       1       5       3       0       0     229
 2012 182    30    8351   0.273    8304   0.271    8365   0.273    8310   0.272     41625       0   41625    2282    4177    1905   11218   22042       0     218      30      37      11      48      91    5732     698     992     297    1252    2493   35650    1549    3143    1594    9910   19454       0      26       5       6       2       8       5       0      11       3       2       1       3       2       0      15       2       3       1       5       3       0       0     236
 2012 183    31    8349   0.273    8303   0.271    8362   0.273    8309   0.272     41618       0   41618    2281    4176    1904   11217   22040       0     215      30      37      11      48      90    5729     698     991     297    1252    2492   35649    1549    3143    1594    9910   19453       0      25       5       6       2       7       5       0      10       3       2       1       3       2       0      15       2       3       1       5       3       0       0     242
 2012 184    32    7998   0.274    8270   0.270    8010   0.274    8276   0.270     41611       0   41611    2212    4243    1904   11215   22037       0     212      25      40      11      47      89    5726     627    1061     297    1251    2490   35649    1557    3135    1594    9910   19453       0      24       4       6       2       7       5       0      10       2       3       1       3       2       0      15       2       4       1       5       3       0       0     249
 2012 185    33    8027   0.274    8272   0.270    8039   0.274    8278   0.271     41605       0   41605    2211    4241    1904   11214   22035       0     209      24      40      11      47      88    5723     626    1061     296    1250    2489   35648    1557    3135    1594    9910   19453       0      24       4       6       2       7       5       0       9       2       2       1       2       2       0      15       2       4       1       5       3       0       0     256
 2012 186    34    8025   0.274    8271   0.270    8036   0.274    8277   0.270     41598       0   41598    2210    4240    1903   11212   22032       0     207      24      39      11      46      87    5720     626    1060     296    1250    2488   35648    1557    3135    1594    9910   19453       0      23       4       6       2       7       5       0       9       2       2       1       2       2       0      15       2       4       1       5       3       0       0     263
 2012 187    35    8022   0.274    8270   0.270    8034   0.274    8276   0.270     41592       0   41592    2209    4239    1903   11211   22030       0     204      23      39      11      46      86    5717     625    1060     296    1249    2487   35647    1557    3135    1594    9909   19452       0      23       4       6       2       7       5       0       8       2       2       1       2       2       0      15       2       4       1       5       3       0       0     269
 2012 188    36    8020   0.274    8269   0.270    8031   0.274    8274   0.270     41585       0   41585    2208    4238    1903   11210   22027       0     202      23      38      11      45      85    5715     625    1059     296    1249    2486   35647    1557    3135    1594    9909   19452       0      22       4       6       2       7       4       0       8       2       2       1       2       1       0      15       2       4       1       5       3       0       0     275
 2012 189    37    8019   0.273    8269   0.270    8029   0.274    8273   0.270     41580       0   41580    2207    4237    1902   11208   22025       0     199      23      38      10      45      84    5712     624    1059     296    1248    2485   35646    1557    3135    1594    9909   19452       0      22       4       6       2       6       4       0       7       2       2       1       2       1       0      15       2       4       1       5       3       0       0     281
 2012 190    38    8017   0.273    8268   0.270    8028   0.274    8272   0.270     41574       0   41574    2207    4236    1902   11207   22022       0     197      23      37      10      44      83    5709     624    1058     296    1247    2483   35646    1557    3135    1594    9909   19452       0      21       4       5       2       6       4       0       7       2       2       0       2       1       0      15       2       4       1       5       3       0       0     287
 2012 191    39    8016   0.273    8267   0.270    8026   0.274    8272   0.270     41569       0   41569    2206    4235    1902   11206   22020       0     195      22      37      10      44      82    5707     624    1058     296    1247    2482   35646    1557    3135    1594    9909   19451       0      21       4       5       2       6       4       0       6       1       2       0       2       1       0      15       2       4       1       5       3       0       0     292
 2012 192    40    8014   0.273    8266   0.270    8024   0.274    8271   0.270     41563       0   41563    2206    4234    1902   11204   22017       0     193      22      37      10      43      81    5704     624    1058     295    1246    2481   35645    1557    3135    1594    9909   19451       0      21       3       5       2       6       4       0       6       1       2       0       2       1       0      15       2       4       1       5       3       0       0     298
 2012 193    41    8013   0.273    8265   0.270    8023   0.274    8270   0.270     41558       0   41558    2205    4233    1901   11203   22015       0     191      22      36      10      43      80    5702     623    1057     295    1246    2480   35645    1556    3135    1594    9909   19451       0      20       3       5       2       6       4       0       6       1       2       0       1       1       0      15       2       4       1       5       3       0       0     303
 2012 194    42    8011   0.273    8264   0.270    8021   0.274    8269   0.270     41553       0   41553    2205    4233    1901   11202   22013       0     189      22      36      10      42      79    5699     623    1057     295    1245    2479   35644    1556    3135    1594    9908   19451       0      20       3       5       2       6       4       0       6       1       1       0       1       1       0      15       2       4       1       5       3       0       0     308
 2012 195    43    8010   0.273    8263   0.270    8020   0.274    8268   0.270     41547       0   41547    2205    4232    1901   11200   22010       0     187      22      36      10      42      79    5696     623    1056     295    1244    2477   35644    1556    3135    1594    9908   19450       0      20       3       5       2       6       4       0       5       1       1       0       1       1       0      15       2       4       1       5       3       0       0     313
 2012 196    44    8009   0.273    8262   0.270    8019   0.273    8267   0.270     41542       0   41542    2204    4231    1900   11199   22008       0     186      22      35      10      41      78    5694     623    1056     295    1244    2476   35643    1556    3135    1594    9908   19450       0      20       3       5       2       6       4       0       5       1       1       0       1       1       0      15       2       4       1       5       3       0       0     318
 2012 197    45    8254   0.272    8284   0.271    8264   0.273    8288   0.271     41537       0   41537    2204    4230    1900   11198   22005       0     184      21      35      10      41      77    5691     623    1056     295    1243    2475   35643    1556    3135    1594    9908   19450       0      19       3       5       2       6       4       0       5       1       1       0       1       1       0      15       2       4       1       5       3       0       0     323
 2012 198    46    8252   0.272    8283   0.271    8262   0.273    8287   0.271     41531       0   41531    2203    4229    1900   11196   22003       0     181      21      35       9      40      76    5688     623    1055     295    1243    2474   35642    1556    3134    1594    9908   19449       0      19       3       5       2       6       4       0       5       1       1       0       1       1       0      15       2       4       1       5       3       0       0     330
 2012 199    47    8249   0.272    8282   0.271    8259   0.272    8286   0.271     41525       0   41525    2202    4228    1899   11195   22000       0     179      21      34       9      40      75    5685     622    1055     294    1242    2472   35642    1556    3134    1594    9908   19449       0      19       3       5       2       6       4       0       4       1       1       0       1       1       0      15       2       4       1       5       3       0       0     336
 2012 200    48    8317   0.272    8288   0.271    8327   0.272    8292   0.271     41518       0   41518    2201    4227    1899   11194   21998       0     177      20      34       9      39      74    5682     621    1054     294    1241    2471   35641    1556    3134    1594    9908   19449       0      19       3       5       2       6       4       0       4       1       1       0       1       1       0      15       2       4       1       5       3       0       0     342
 2012 201    49    8315   0.272    8287   0.271    8325   0.272    8291   0.271     41513       0   41513    2200    4226    1899   11192   21996       0     175      20      33       9      39      74    5679     621    1053     294    1241    2470   35641    1556    3134    1594    9907   19449       0      18       3       5       2       5       4       0       4       1       1       0       1       1       0      15       2       4       1       5       3       0       0     348
 2012 202    50    8313   0.272    8286   0.271    8322   0.272    8290   0.271     41507       0   41507    2199    4225    1898   11191   21994       0     173      19      33       9      39      73    5676     620    1053     294    1240    2469   35640    1556    3134    1594    9907   19448       0      18       3       5       2       5       4       0       4       1       1       0       1       1       0      15       2       4       1       5       3       0       0     354
 2012 203    51    8311   0.272    8285   0.271    8320   0.272    8289   0.271     41501       0   41501    2198    4224    1898   11190   21992       0     171      19      32       9      38      72    5673     620    1052     294    1239    2467   35640    1556    3134    1594    9907   19448       0      18       3       4       2       5       4       0       3       1       1       0       1       1       0      15       2       4       1       5       3       0       0     359
 2012 204    52    8309   0.272    8284   0.271    8318   0.272    8288   0.271     41496       0   41496    2197    4223    1898   11189   21989       0     169      19      32       9      38      72    5670     619    1052     294    1239    2466   35639    1556    3134    1594    9907   19448       0      18       3       4       2       5       3       0       3       1       1       0       1       1       0      15       2       4       1       5       3       0       0     365
 2012 205    53    8307   0.271    8283   0.271    8316   0.272    8287   0.271     41491       0   41491    2197    4222    1898   11188   21987       0     168      19      32       9      37      71    5667     619    1051     294    1238    2465   35639    1556    3134    1594    9907   19448       0      17       3       4       2       5       3       0       3       1       1       0       1       1       0      14       2       4       1       5       3       0       0     370
 2012 206    54    8306   0.271    8283   0.271    8314   0.272    8286   0.271     41486       0   41486    2196    4221    1897   11187   21985       0     166      18      31       9      37      70    5665     619    1051     293    1238    2464   35638    1556    3134    1594    9907   19447       0      17       3       4       2       5       3       0       3       1       1       0       1       0       0      14       2       4       1       5       3       0       0     374
 2012 207    55    8304   0.271    8282   0.271    8313   0.272    8286   0.271     41481       0   41481    2196    4220    1897   11185   21983       0     164      18      31       9      37      70    5662     619    1050     293    1237    2463   35638    1556    3134    1594    9907   19447       0      17       3       4       2       5       3       0       3       1       1       0       1       0       0      14       2       4       1       5       3       0       0     379
 2012 208    56    8303   0.271    8281   0.271    8311   0.272    8285   0.271     41477       0   41477    2195    4219    1897   11184   21981       0     163      18      31       8      36      69    5659     618    1050     293    1236    2462   35638    1556    3134    1594    9907   19447       0      17       3       4       2       5       3       0       3       1       1       0       1       0       0      14       2       4       1       5       3       0       0     384
 2012 209    57    8301   0.271    8280   0.271    8310   0.272    8284   0.271     41472       0   41472    2195    4218    1897   11183   21979       0     161      18      31       8      36      69    5657     618    1049     293    1236    2460   35637    1556    3134    1594    9906   19447       0      17       3       4       2       5       3       0       2       1       1       0       1       0       0      14       2       4       1       5       3       0       0     389
 2012 210    58    8300   0.271    8279   0.271    8308   0.272    8283   0.271     41467       0   41467    2195    4217    1896   11182   21977       0     160      18      30       8      36      68    5654     618    1049     293    1235    2459   35637    1556    3134    1594    9906   19446       0      17       3       4       1       5       3       0       2       1       1       0       0       0       0      14       2       4       1       5       3       0       0     394
 2012 211    59    8297   0.271    8278   0.271    8306   0.271    8282   0.271     41461       0   41461    2194    4216    1896   11181   21975       0     158      17      30       8      35      67    5650     617    1048     293    1234    2458   35636    1556    3134    1594    9906   19446       0      17       3       4       1       5       3       0       2       1       1       0       0       0       0      14       2       4       1       5       3       0       0     400
 2012 212    60    8295   0.271    8278   0.271    8304   0.271    8281   0.271     41456       0   41456    2193    4215    1896   11180   21973       0     156      17      29       8      35      67    5647     617    1048     292    1234    2457   35636    1556    3134    1594    9906   19446       0      16       3       4       1       5       3       0       2       1       1       0       0       0       0      14       2       4       1       5       3       0       0     405
 2012 213    61    8293   0.271    8277   0.270    8301   0.271    8280   0.271     41450       0   41450    2192    4214    1895   11178   21970       0     155      17      29       8      35      66    5644     616    1047     292    1233    2455   35635    1556    3134    1594    9906   19446       0      16       3       4       1       5       3       0       2       1       0       0       0       0       0      14       2       4       1       5       3       0       0     411
 2012 214    62    8291   0.271    8276   0.270    8299   0.271    8279   0.271     41445       0   41445    2191    4213    1895   11177   21968       0     153      17      29       8      34      66    5641     616    1046     292    1232    2454   35635    1556    3134    1594    9906   19445       0      16       3       4       1       5       3       0       2       1       0       0       0       0       0      14       2       4       1       5       3       0       0     416
 2012 215    63    8289   0.271    8275   0.270    8297   0.271    8279   0.271     41440       0   41440    2190    4212    1895   11176   21967       0     152      16      28       8      34      65    5638     615    1046     292    1232    2453   35634    1556    3134    1594    9906   19445       0      16       3       4       1       5       3       0       2       1       0       0       0       0       0      14       2       4       1       5       3       0       0     421
 2012 216    64    8288   0.271    8274   0.270    8296   0.271    8278   0.271     41436       0   41436    2190    4211    1895   11175   21965       0     150      16      28       8      34      65    5635     615    1045     292    1231    2452   35634    1556    3134    1594    9905   19445       0      16       2       4       1       5       3       0       2       0       0       0       0       0       0      14       2       4       1       5       3       0       0     425
 2012 217    65    8287   0.271    8274   0.270    8294   0.271    8277   0.270     41431       0   41431    2190    4210    1894   11174   21963       0     149      16      28       8      33      64    5633     615    1045     292    1231    2451   35633    1556    3134    1594    9905   19445       0      16       2       4       1       5       3       0       1       0       0       0       0       0       0      14       2       4       1       5       3       0       0     430
 2012 218    66    8285   0.271    8273   0.270    8293   0.271    8276   0.270     41427       0   41427    2189    4210    1894   11173   21961       0     148      16      28       8      33      64    5630     615    1044     291    1230    2450   35633    1556    3134    1594    9905   19444       0      16       2       4       1       5       3       0       1       0       0       0       0       0       0      14       2       4       1       5       3       0       0     434
 2012 219    67    8283   0.271    8272   0.270    8291   0.271    8276   0.270     41422       0   41422    2189    4209    1894   11172   21959       0     147      16      27       8      33      63    5627     614    1044     291    1229    2448   35632    1556    3134    1594    9905   19444       0      16       2       4       1       5       3       0       1       0       0       0       0       0       0      14       2       4       1       5       3       0       0     439
 2012 220    68    8282   0.271    8271   0.270    8289   0.271    8275   0.270     41417       0   41417    2188    4208    1894   11171   21957       0     145      16      27       7      33      62    5624     614    1043     291    1229    2447   35632    1556    3134    1594    9905   19444       0      16       2       4       1       5       3       0       1       0       0       0       0       0       0      14       2       4       1       5       3       0       0     444
 2012 221    69    8280   0.271    8270   0.270    8288   0.271    8274   0.270     41412       0   41412    2188    4207    1893   11170   21955       0     144      16      27       7      32      62    5621     614    1043     291    1228    2446   35631    1556    3134    1593    9905   19444       0      15       2       4       1       5       3       0       1       0       0       0       0       0       0      14       2       4       1       5       3       0       0     448
 2012 222    70    8279   0.271    8270   0.270    8286   0.271    8273   0.270     41408       0   41408    2187    4206    1893   11169   21953       0     143      15      27       7      32      62    5619     613    1042     291    1227    2445   35631    1556    3134    1593    9905   19443       0      15       2       4       1       5       3       0       1       0       0       0       0       0       0      14       2       4       1       5       3       0       0     453
 2012 223    71    8277   0.271    8269   0.270    8285   0.271    8272   0.270     41404       0   41404    2187    4205    1893   11168   21951       0     142      15      26       7      32      61    5616     613    1042     291    1227    2444   35631    1556    3133    1593    9904   19443       0      15       2       4       1       5       3       0       1       0       0       0       0       0       0      14       2       4       1       5       3       0       0     457
 2012 224    72    8276   0.270    8268   0.270    8283   0.271    8272   0.270     41399       0   41399    2186    4204    1893   11167   21949       0     141      15      26       7      31      61    5613     613    1041     291    1226    2442   35630    1556    3133    1593    9904   19443       0      15       2       4       1       5       3       0       1       0       0       0       0       0       0      14       2       4       1       5       3       0       0     462
 2012 225    73    8274   0.270    8267   0.270    8282   0.271    8271   0.270     41395       0   41395    2186    4204    1892   11166   21947       0     140      15      26       7      31      60    5610     613    1041     290    1226    2441   35630    1556    3133    1593    9904   19443       0      15       2       4       1       5       3       0       1       0       0       0       0       0       0      14       2       4       1       5       3       0       0     466
 2012 226    74    8273   0.270    8267   0.270    8280   0.271    8270   0.270     41390       0   41390    2185    4203    1892   11165   21945       0     139      15      26       7      31      60    5608     612    1040     290    1225    2440   35629    1556    3133    1593    9904   19442       0      15       2       4       1       5       3       0       1       0       0       0       0       0       0      14       2       4       1       5       3       0       0     470
 2012 227    75    8271   0.270    8266   0.270    8279   0.271    8269   0.270     41386       0   41386    2185    4202    1892   11164   21943       0     137      15      25       7      31      59    5605     612    1039     290    1224    2439   35629    1556    3133    1593    9904   19442       0      15       2       4       1       5       3       0       1       0       0       0       0       0       0      14       2       4       1       5       3       0       0     475
 2012 228    76    8270   0.270    8265   0.270    8277   0.270    8269   0.270     41382       0   41382    2184    4201    1892   11163   21942       0     136      15      25       7      31      59    5602     612    1039     290    1224    2438   35628    1556    3133    1593    9904   19442       0      15       2       4       1       5       3       0       1       0       0       0       0       0       0      14       2       4       1       4       3       0       0     479
 2012 229    77    8269   0.270    8265   0.270    8276   0.270    8268   0.270     41378       0   41378    2184    4200    1891   11162   21940       0     135      15      25       7      30      59    5599     611    1038     290    1223    2437   35628    1556    3133    1593    9904   19442       0      15       2       4       1       5       3       0       1       0       0       0       0       0       0      14       2       4       1       4       3       0       0     483
 2012 230    78    8267   0.270    8264   0.270    8274   0.270    8267   0.270     41373       0   41373    2184    4200    1891   11161   21938       0     134      14      25       7      30      58    5597     611    1038     290    1223    2435   35627    1556    3133    1593    9904   19442       0      15       2       4       1       5       3       0       1       0       0       0       0       0       0      14       2       4       1       4       3       0       0     487
 2012 231    79    8266   0.270    8263   0.270    8273   0.270    8267   0.270     41370       0   41370    2183    4199    1891   11160   21937       0     134      14      25       7      30      58    5594     611    1037     290    1222    2434   35627    1556    3133    1593    9903   19441       0      15       2       4       1       5       3       0       1       0       0       0       0       0       0      14       2       4       1       4       3       0       0     491
 2012 232    80    8265   0.270    8263   0.270    8272   0.270    8266   0.270     41366       0   41366    2183    4198    1891   11159   21935       0     133      14      24       7      30      57    5592     611    1037     289    1221    2433   35627    1556    3133    1593    9903   19441       0      15       2       4       1       5       3       0       1       0       0       0       0       0       0      14       2       4       1       4       3       0       0     495
 2012 233    81    8263   0.270    8262   0.270    8270   0.270    8265   0.270     41361       0   41361    2182    4197    1891   11158   21933       0     132      14      24       7      29      57    5589     610    1036     289    1221    2432   35626    1556    3133    1593    9903   19441       0      15       2       4       1       5       3       0       1       0       0       0       0       0       0      14       2       4       1       4       3       0       0     499
 2012 234    82    8262   0.270    8261   0.270    8269   0.270    8265   0.270     41357       0   41357    2182    4197    1890   11157   21931       0     131      14      24       7      29      57    5586     610    1036     289    1220    2431   35626    1556    3133    1593    9903   19441       0      15       2       4       1       5       3       0       1       0       0       0       0       0       0      14       2       4       1       4       3       0       0     504
 2012 235    83    8260   0.270    8260   0.270    8267   0.270    8264   0.270     41353       0   41353    2181    4196    1890   11156   21929       0     130      14      24       7      29      56    5583     610    1035     289    1220    2430   35625    1556    3133    1593    9903   19440       0      15       2       4       1       5       3       0       1       0       0       0       0       0       0      14       2       4       1       4       3       0       0     508
 2012 236    84    8259   0.270    8260   0.270    8266   0.270    8263   0.270     41349       0   41349    2181    4195    1890   11155   21928       0     129      14      24       7      29      56    5580     609    1035     289    1219    2429   35625    1556    3133    1593    9903   19440       0      15       2       4       1       5       3       0       1       0       0       0       0       0       0      14       2       4       1       4       3       0       0     512
 2012 237    85    8257   0.270    8259   0.270    8264   0.270    8262   0.270     41345       0   41345    2181    4194    1890   11154   21926       0     128      14      23       7      29      56    5578     609    1034     289    1218    2427   35624    1556    3133    1593    9903   19440       0      15       2       4       1       5       3       0       0       0       0       0       0       0       0      14       2       4       1       4       3       0       0     516
 2012 238    86    8256   0.270    8258   0.270    8263   0.270    8262   0.270     41340       0   41340    2180    4193    1889   11153   21924       0     127      14      23       6      28      55    5575     609    1034     288    1218    2426   35624    1556    3133    1593    9903   19440       0      15       2       4       1       5       3       0       0       0       0       0       0       0       0      14       2       4       1       4       3       0       0     521
 2012 239    87    8254   0.270    8258   0.270    8261   0.270    8261   0.270     41336       0   41336    2180    4193    1889   11152   21922       0     126      14      23       6      28      55    5572     608    1033     288    1217    2425   35624    1556    3133    1593    9902   19439       0      15       2       4       1       5       3       0       0       0       0       0       0       0       0      14       2       4       1       4       3       0       0     525
 2012 240    88    8253   0.270    8257   0.270    8260   0.270    8260   0.270     41332       0   41332    2179    4192    1889   11151   21921       0     125      13      23       6      28      55    5569     608    1033     288    1216    2424   35623    1556    3133    1593    9902   19439       0      15       2       4       1       5       3       0       0       0       0       0       0       0       0      14       2       4       1       4       3       0       0     529
 2012 241    89    8252   0.270    8256   0.270    8259   0.270    8260   0.270     41328       0   41328    2179    4191    1889   11150   21919       0     125      13      23       6      28      54    5566     608    1032     288    1216    2423   35623    1556    3133    1593    9902   19439       0      14       2       4       1       5       3       0       0       0       0       0       0       0       0      14       2       4       1       4       3       0       0     533
 2012 242    90    8250   0.270    8255   0.270    8257   0.270    8259   0.270     41324       0   41324    2178    4190    1889   11149   21917       0     124      13      22       6      28      54    5563     608    1032     288    1215    2421   35622    1556    3133    1593    9902   19439       0      14       2       4       1       5       3       0       0       0       0       0       0       0       0      14       2       3       1       4       3       0       0     537
 2012 243    91    8249   0.270    8255   0.270    8256   0.270    8258   0.270     41320       0   41320    2178    4190    1888   11148   21915       0     123      13      22       6      28      54    5560     607    1031     288    1214    2420   35622    1556    3133    1593    9902   19438       0      14       2       4       1       5       3       0       0       0       0       0       0       0       0      14       2       3       1       4       3       0       0     541
 2012 244    92    8248   0.270    8254   0.270    8255   0.270    8257   0.270     41316       0   41316    2178    4189    1888   11148   21913       0     122      13      22       6      27      53    5558     607    1030     288    1214    2419   35621    1556    3133    1593    9902   19438       0      14       2       4       1       5       3       0       0       0       0       0       0       0       0      14       2       3       1       4       3       0       0     545
 2012 245    93    8246   0.269    8253   0.270    8253   0.270    8257   0.270     41312       0   41312    2177    4188    1888   11147   21912       0     121      13      22       6      27      53    5555     607    1030     288    1213    2418   35621    1556    3133    1593    9902   19438       0      14       2       4       1       5       3       0       0       0       0       0       0       0       0      14       2       3       1       4       3       0       0     549
 2012 246    94    8245   0.269    8253   0.270    8252   0.270    8256   0.270     41308       0   41308    2177    4187    1888   11146   21910       0     121      13      22       6      27      53    5552     606    1029     287    1213    2417   35620    1555    3133    1593    9902   19438       0      14       2       4       1       4       3       0       0       0       0       0       0       0       0      14       2       3       1       4       3       0       0     553
 2012 247    95    8244   0.269    8252   0.270    8251   0.270    8255   0.270     41304       0   41304    2176    4187    1888   11145   21908       0     120      13      22       6      27      53    5550     606    1029     287    1212    2415   35620    1555    3133    1593    9901   19437       0      14       2       4       1       4       3       0       0       0       0       0       0       0       0      14       2       3       1       4       3       0       0     557
 2012 248    96    8242   0.269    8251   0.270    8249   0.270    8255   0.270     41300       0   41300    2176    4186    1887   11144   21907       0     119      13      22       6      27      52    5547     606    1028     287    1211    2414   35620    1555    3133    1593    9901   19437       0      14       2       4       1       4       3       0       0       0       0       0       0       0       0      14       2       3       1       4       3       0       0     561
 2012 249    97    8241   0.269    8251   0.270    8248   0.270    8254   0.270     41296       0   41296    2176    4185    1887   11143   21905       0     119      13      21       6      27      52    5544     605    1028     287    1211    2413   35619    1555    3133    1593    9901   19437       0      14       2       4       1       4       3       0       0       0       0       0       0       0       0      14       2       3       1       4       3       0       0     565
 2012 250    98    8240   0.269    8250   0.270    8247   0.270    8253   0.270     41293       0   41293    2175    4185    1887   11142   21903       0     118      13      21       6      26      52    5542     605    1027     287    1210    2412   35619    1555    3133    1593    9901   19437       0      14       2       4       1       4       3       0       0       0       0       0       0       0       0      14       2       3       1       4       3       0       0     568
 2012 251    99    8239   0.269    8250   0.270    8246   0.269    8253   0.270     41289       0   41289    2175    4184    1887   11141   21902       0     117      13      21       6      26      51    5539     605    1027     287    1210    2411   35618    1555    3132    1593    9901   19437       0      14       2       4       1       4       3       0       0       0       0       0       0       0       0      14       2       3       1       4       3       0       0     571
 2012 252   100    8238   0.269    8249   0.270    8245   0.269    8252   0.270     41286       0   41286    2175    4184    1887   11141   21900       0     117      12      21       6      26      51    5537     605    1027     287    1209    2410   35618    1555    3132    1593    9901   19436       0      14       2       4       1       4       3       0       0       0       0       0       0       0       0      14       2       3       1       4       3       0       0     575
 2012 253   101    8238   0.269    8248   0.270    8244   0.269    8252   0.270     41283       0   41283    2175    4183    1886   11140   21899       0     116      12      21       6      26      51    5535     605    1026     286    1209    2409   35618    1555    3132    1593    9901   19436       0      14       2       4       1       4       3       0       0       0       0       0       0       0       0      14       2       3       1       4       3       0       0     578
 2012 254   102    8237   0.269    8248   0.270    8244   0.269    8251   0.270     41280       0   41280    2174    4183    1886   11139   21897       0     116      12      21       6      26      51    5532     605    1026     286    1208    2407   35617    1555    3132    1593    9901   19436       0      14       2       4       1       4       3       0       0       0       0       0       0       0       0      14       2       3       1       4       3       0       0     581
 2012 255   103    8236   0.269    8247   0.270    8243   0.269    8250   0.270     41277       0   41277    2174    4183    1886   11138   21895       0     115      12      21       6      26      51    5530     604    1026     286    1207    2406   35617    1555    3132    1593    9900   19436       0      14       2       4       1       4       3       0       0       0       0       0       0       0       0      14       2       3       1       4       3       0       0     584
 2012 256   104    8235   0.269    8247   0.269    8242   0.269    8250   0.270     41273       0   41273    2174    4182    1886   11137   21894       0     115      12      21       6      26      50    5528     604    1025     286    1207    2405   35616    1555    3132    1593    9900   19435       0      14       2       4       1       4       3       0       0       0       0       0       0       0       0      14       2       3       1       4       3       0       0     588
 2012 257   105    8234   0.269    8246   0.269    8240   0.269    8249   0.270     41269       0   41269    2173    4181    1886   11136   21892       0     114      12      21       6      26      50    5525     604    1025     286    1206    2404   35616    1555    3132    1593    9900   19435       0      14       2       4       1       4       3       0       0       0       0       0       0       0       0      14       2       3       1       4       3       0       0     592
 2012 258   106    8232   0.269    8245   0.269    8239   0.269    8248   0.270     41265       0   41265    2173    4181    1886   11135   21890       0     114      12      21       6      25      50    5522     604    1024     286    1206    2403   35615    1555    3132    1593    9900   19435       0      14       2       4       1       4       3       0       0       0       0       0       0       0       0      14       2       3       1       4       3       0       0     596
 2012 259   107    8231   0.269    8244   0.269    8238   0.269    8248   0.270     41261       0   41261    2173    4180    1885   11134   21889       0     113      12      20       6      25      50    5519     603    1024     286    1205    2402   35615    1555    3132    1593    9900   19435       0      14       2       3       1       4       3       0       0       0       0       0       0       0       0      14       2       3       1       4       3       0       0     600
 2012 260   108    8230   0.269    8244   0.269    8236   0.269    8247   0.270     41257       0   41257    2172    4179    1885   11134   21887       0     112      12      20       6      25      49    5516     603    1023     285    1204    2400   35614    1555    3132    1593    9900   19434       0      14       2       3       1       4       3       0       0       0       0       0       0       0       0      14       2       3       1       4       3       0       0     604
 2012 261   109    8228   0.269    8243   0.269    8235   0.269    8246   0.269     41253       0   41253    2172    4178    1885   11133   21885       0     112      12      20       6      25      49    5513     603    1023     285    1204    2399   35614    1555    3132    1593    9900   19434       0      14       2       3       1       4       3       0       0       0       0       0       0       0       0      14       2       3       1       4       3       0       0     608
 2012 262   110    8227   0.269    8242   0.269    8234   0.269    8246   0.269     41250       0   41249    2171    4178    1885   11132   21884       0     111      12      20       6      25      49    5510     602    1022     285    1203    2398   35614    1555    3132    1593    9900   19434       0      14       2       3       1       4       3       0       0       0       0       0       0       0       0      14       2       3       1       4       3       0       0     612
 2012 263   111    8226   0.269    8242   0.269    8233   0.269    8245   0.269     41246       1   41245    2171    4177    1885   11131   21882       0     111      12      20       6      25      49    5508     602    1022     285    1202    2397   35613    1555    3132    1593    9899   19434       0      14       2       3       1       4       3       0       0       0       0       0       0       0       0      14       2       3       1       4       3       0       0     615
 2012 264   112    8225   0.269    8241   0.269    8232   0.269    8245   0.269     41243       1   41242    2171    4176    1884   11130   21880       0     110      12      20       6      25      48    5505     602    1021     285    1202    2396   35613    1555    3132    1593    9899   19433       1      14       2       3       1       4       3       0       0       0       0       0       0       0       0      14       2       3       1       4       3       0       0     619
 2012 265   113    8224   0.269    8241   0.269    8231   0.269    8244   0.269     41240       1   41239    2170    4176    1884   11129   21879       0     110      12      20       6      25      48    5503     602    1021     285    1201    2395   35612    1555    3132    1593    9899   19433       1      14       2       3       1       4       3       0       0       0       0       0       0       0       0      14       2       3       1       4       3       0       0     622
 2012 266   114    8223   0.269    8240   0.269    8230   0.269    8243   0.269     41236       1   41235    2170    4175    1884   11128   21877       0     109      12      20       6      24      48    5500     601    1020     285    1201    2393   35612    1555    3132    1593    9899   19433       1      14       2       3       1       4       3       1       0       0       0       0       0       0       0      14       2       3       1       4       3       0       0     625
 2012 267   115    8222   0.269    8239   0.269    8228   0.269    8243   0.269     41232       1   41232    2170    4175    1884   11128   21876       0     109      12      20       6      24      48    5498     601    1020     284    1200    2392   35611    1555    3132    1593    9899   19433       1      14       2       3       1       4       3       1       0       0       0       0       0       0       0      14       2       3       1       4       3       0       0     629
 2012 268   116    8221   0.269    8239   0.269    8227   0.269    8242   0.269     41229       1   41228    2169    4174    1884   11127   21874       0     108      11      19       5      24      48    5495     601    1019     284    1199    2391   35611    1555    3132    1593    9899   19433       1      14       2       3       1       4       3       1       0       0       0       0       0       0       0      14       2       3       1       4       3       0       0     633
 2012 269   117    8220   0.269    8238   0.269    8226   0.269    8242   0.269     41226       1   41225    2169    4174    1883   11126   21873       0     108      11      19       5      24      48    5493     601    1019     284    1199    2390   35611    1555    3132    1593    9899   19432       1      14       2       3       1       4       3       1       0       0       0       0       0       0       0      14       2       3       1       4       3       0       0     636
 2012 270   118    8218   0.269    8238   0.269    8225   0.269    8241   0.269     41222       1   41222    2169    4173    1883   11125   21871       0     107      11      19       5      24      47    5490     600    1018     284    1198    2389   35610    1555    3132    1593    9899   19432       1      14       2       3       1       4       3       1       0       0       0       0       0       0       0      14       2       3       1       4       3       0       0     639
 2012 271   119    8217   0.269    8237   0.269    8224   0.269    8240   0.269     41219       1   41218    2168    4172    1883   11125   21870       0     107      11      19       5      24      47    5488     600    1018     284    1198    2388   35610    1555    3132    1593    9898   19432       1      14       2       3       1       4       3       1       0       0       0       0       0       0       0      14       2       3       1       4       3       0       0     642
 2012 272   120    8216   0.269    8237   0.269    8223   0.269    8240   0.269     41217       1   41216    2168    4172    1883   11124   21869       0     107      11      19       5      24      47    5486     600    1018     284    1197    2387   35610    1555    3132    1593    9898   19432       1      14       2       3       1       4       3       1       0       0       0       0       0       0       0      14       2       3       1       4       3       0       0     645
 2012 273   121    8216   0.268    8236   0.269    8222   0.269    8239   0.269     41214       1   41213    2168    4172    1883   11123   21867       0     106      11      19       5      24      47    5484     600    1017     284    1197    2386   35609    1555    3132    1592    9898   19432       1      14       2       3       1       4       3       1       0       0       0       0       0       0       0      14       2       3       1       4       3       0       0     648
 2012 274   122    8214   0.268    8236   0.269    8221   0.269    8239   0.269     41211       2   41210    2167    4171    1883   11123   21866       0     106      11      19       5      24      47    5481     599    1017     283    1196    2385   35609    1555    3132    1592    9898   19431       1      14       2       3       1       4       3       1       0       0       0       0       0       0       0      14       2       3       1       4       3       0       0     651
 2012 275   123    8213   0.268    8235   0.269    8220   0.269    8238   0.269     41209       2   41207    2167    4170    1882   11122   21865       0     106      11      19       5      24      47    5479     599    1016     283    1196    2385   35609    1555    3132    1592    9898   19431       2      14       2       3       1       4       3       2       0       0       0       0       0       0       0      14       2       3       1       4       3       0       0     654
 2012 276   124    8212   0.268    8234   0.269    8219   0.269    8238   0.269     41206       2   41204    2167    4170    1882   11121   21864       0     105      11      19       5      24      47    5476     599    1016     283    1195    2384   35608    1555    3132    1592    9898   19431       2      14       2       3       1       4       3       2       0       0       0       0       0       0       0      14       2       3       1       4       3       0       0     657
 2012 277   125    8211   0.268    8234   0.269    8218   0.269    8237   0.269     41204       3   41201    2166    4169    1882   11120   21863       0     105      11      19       5      23      46    5474     598    1015     283    1195    2383   35608    1555    3132    1592    9898   19431       3      14       2       3       1       4       3       2       0       0       0       0       0       0       0      14       2       3       1       4       3       0       0     660
 2012 278   126    8211   0.268    8233   0.269    8217   0.269    8237   0.269     41202       3   41199    2166    4169    1882   11119   21862       0     105      11      19       5      23      46    5473     598    1015     283    1194    2382   35608    1555    3132    1592    9898   19431       3      14       2       3       1       4       3       3       0       0       0       0       0       0       1      14       2       3       1       4       3       0       0     662
 2012 279   127    8210   0.268    8233   0.269    8217   0.269    8236   0.269     41200       4   41196    2166    4168    1882   11119   21861       0     104      11      19       5      23      46    5471     598    1015     283    1194    2382   35607    1555    3132    1592    9898   19431       4      14       2       3       1       4       3       3       0       0       0       0       0       0       1      14       2       3       1       4       3       0       0     664
 2012 280   128    8209   0.268    8233   0.269    8216   0.268    8236   0.269     41199       5   41194    2166    4168    1882   11118   21860       0     104      11      19       5      23      46    5469     598    1015     283    1193    2381   35607    1555    3132    1592    9898   19431       4      14       2       3       1       4       3       4       0       0       0       0       0       0       1      14       2       3       1       4       3       0       0     667
 2012 281   129    8209   0.268    8232   0.269    8216   0.268    8235   0.269     41198       6   41192    2166    4168    1882   11118   21859       0     104      11      19       5      23      46    5468     598    1014     283    1193    2380   35607    1555    3132    1592    9897   19430       5      14       2       3       1       4       3       4       0       0       0       0       0       0       1      14       2       3       1       4       3       0       0     669
 2012 282   130    8208   0.268    8232   0.269    8215   0.268    8235   0.269     41197       7   41190    2166    4168    1881   11117   21858       0     104      11      18       5      23      46    5466     598    1014     283    1192    2379   35607    1555    3132    1592    9897   19430       6      14       2       3       1       4       3       5       0       0       0       0       0       0       1      14       2       3       1       4       3       0       0     670
 2012 283   131    8208   0.268    8231   0.269    8215   0.268    8234   0.269     41196       8   41189    2166    4167    1881   11117   21858       0     103      11      18       5      23      46    5465     598    1014     283    1192    2379   35606    1555    3132    1592    9897   19430       7      14       2       3       1       4       3       6       0       0       0       0       0       0       1      14       2       3       1       4       3       0       0     672
 2012 284   132    8208   0.268    8231   0.269    8214   0.268    8234   0.269     41196       9   41187    2166    4167    1881   11116   21857       0     103      11      18       5      23      46    5464     598    1014     282    1192    2378   35606    1555    3132    1592    9897   19430       9      14       2       3       1       4       3       7       0       0       0       0       0       0       1      14       2       3       1       4       3       0       1     674
 2012 285   133    8207   0.268    8231   0.269    8214   0.268    8234   0.269     41196      11   41185    2165    4167    1881   11116   21856       0     103      11      18       5      23      46    5462     598    1014     282    1191    2378   35606    1555    3132    1592    9897   19430      10      14       2       3       1       4       3       9       0       0       0       0       0       0       2      14       2       3       1       4       3       0       1     676
 2012 286   134    8207   0.268    8230   0.269    8214   0.268    8233   0.269     41196      12   41183    2165    4167    1881   11115   21855       0     103      11      18       5      23      46    5461     598    1013     282    1191    2377   35606    1555    3132    1592    9897   19430      12      14       2       3       1       4       3      10       0       0       0       0       0       0       2      14       2       3       1       4       3       0       1     677
 2012 287   135    8207   0.268    8230   0.269    8214   0.268    8233   0.269     41196      14   41182    2165    4167    1881   11115   21854       0     103      11      18       5      23      46    5460     598    1013     282    1190    2376   35605    1555    3132    1592    9897   19430      14      14       2       3       1       4       3      12       0       0       0       0       0       0       2      14       2       3       1       4       3       0       1     679
 2012 288   136    8207   0.268    8229   0.269    8213   0.268    8233   0.269     41196      16   41180    2165    4166    1881   11114   21853       0     103      11      18       5      23      45    5459     598    1013     282    1190    2376   35605    1555    3132    1592    9897   19429      16      14       2       3       1       4       3      13       0       0       0       0       0       0       2      14       2       3       1       4       3       0       1     680
 2012 289   137    8206   0.268    8229   0.269    8213   0.268    8232   0.269     41197      18   41179    2165    4166    1881   11114   21853       0     102      11      18       5      23      45    5458     598    1013     282    1190    2375   35605    1555    3131    1592    9897   19429      18      14       2       3       1       4       3      15       0       0       0       0       0       0       3      14       2       3       1       4       3       0       1     682
 2012 290   138    8206   0.268    8229   0.269    8213   0.268    8232   0.269     41198      20   41178    2165    4166    1881   11113   21852       0     102      11      18       5      23      45    5457     598    1013     282    1189    2375   35605    1555    3131    1592    9897   19429      20      14       2       3       1       4       3      17       0       0       0       0       0       0       3      14       2       3       1       4       3       0       1     683
 2012 291   139    8206   0.268    8228   0.269    8213   0.268    8232   0.269     41199      23   41176    2165    4166    1881   11113   21851       0     102      11      18       5      23      45    5456     598    1013     282    1189    2374   35605    1555    3131    1592    9897   19429      22      14       2       3       1       4       3      19       0       0       0       0       0       0       3      14       2       3       1       4       3       0       1     685
 2012 292   140    8206   0.268    8228   0.269    8213   0.268    8231   0.269     41200      25   41175    2165    4166    1881   11112   21851       0     102      11      18       5      23      45    5455     598    1013     282    1189    2374   35604    1555    3131    1592    9897   19429      25      14       2       3       1       4       3      21       0       0       0       0       0       0       4      14       2       3       1       4       3       0       1     686
 2012 293   141    8206   0.268    8228   0.269    8212   0.268    8231   0.269     41201      28   41174    2165    4166    1881   11112   21850       0     102      11      18       5      23      45    5454     598    1013     282    1188    2373   35604    1555    3131    1592    9897   19429      27      14       2       3       1       4       3      23       0       0       0       0       0       0       4      14       2       3       1       4       3       0       1     687
 2012 294   142    8205   0.268    8227   0.269    8212   0.268    8231   0.269     41201      30   41171    2165    4165    1880   11111   21849       1     102      11      18       5      23      45    5452     597    1012     282    1188    2373   35604    1555    3131    1592    9896   19429      29      14       2       3       1       4       3      24       0       0       0       0       0       0       5      14       2       3       1       4       3       0       1     690
 2012 295   143    8204   0.268    8227   0.269    8211   0.268    8230   0.269     41200      32   41168    2165    4164    1880   11110   21848       2     101      11      18       5      22      45    5449     597    1012     282    1187    2372   35604    1555    3131    1592    9896   19429      30      14       2       3       1       4       3      26       0       0       0       0       0       0       5      14       2       3       1       4       3       0       2     693
 2012 296   144    8204   0.268    8226   0.269    8210   0.268    8229   0.269     41200      34   41165    2164    4164    1880   11110   21847       2     101      11      18       5      22      45    5447     597    1011     282    1187    2371   35603    1555    3131    1592    9896   19429      32      14       2       3       1       4       3      27       0       0       0       0       0       0       5      14       2       3       1       4       3       0       3     695
 2012 297   145    8203   0.268    8226   0.269    8210   0.268    8229   0.269     41200      37   41163    2164    4163    1880   11109   21847       2     101      11      18       5      22      45    5445     596    1011     281    1186    2371   35603    1555    3131    1592    9896   19428      34      14       2       3       1       4       3      29       0       0       0       0       0       0       6      14       2       3       1       4       3       0       3     698
 2012 298   146    8203   0.268    8225   0.269    8209   0.268    8228   0.269     41200      39   41161    2164    4163    1880   11108   21846       3     101      11      18       5      22      45    5444     596    1010     281    1186    2370   35603    1555    3131    1592    9896   19428      37      14       2       3       1       4       3      30       0       0       0       0       0       0       6      14       2       3       1       4       3       0       3     700
 2012 299   147    8202   0.268    8225   0.269    8209   0.268    8228   0.269     41201      42   41159    2164    4163    1880   11108   21845       3     100      11      18       5      22      45    5442     596    1010     281    1185    2369   35602    1555    3131    1592    9896   19428      39      14       2       3       1       4       3      32       0       0       0       0       0       0       7      14       2       3       1       4       3       0       4     702
 2012 300   148    8202   0.268    8224   0.269    8209   0.268    8227   0.269     41202      45   41157    2163    4162    1880   11107   21844       3     100      11      18       5      22      45    5441     596    1010     281    1185    2369   35602    1555    3131    1592    9896   19428      42      14       2       3       1       4       3      35       0       0       0       0       0       0       7      14       2       3       1       4       3       0       4     704
 2012 301   149    8202   0.268    8224   0.269    8208   0.268    8227   0.269     41203      48   41155    2163    4162    1879   11107   21844       3     100      11      18       5      22      45    5439     596    1010     281    1184    2368   35602    1555    3131    1592    9896   19428      45      14       2       3       1       4       3      37       0       0       0       0       0       0       8      14       2       3       1       4       3       0       5     706
 2012 302   150    8202   0.268    8223   0.269    8208   0.268    8227   0.269     41205      52   41153    2163    4162    1879   11106   21843       4     100      11      18       5      22      44    5438     596    1010     281    1184    2368   35602    1555    3131    1592    9896   19428      48      14       2       3       1       4       3      40       0       0       0       0       0       0       8      14       2       3       1       4       3       0       5     707
 2012 303   151    8201   0.268    8223   0.269    8208   0.268    8226   0.269     41207      55   41152    2163    4162    1879   11106   21842       4     100      11      18       5      22      44    5437     596    1009     281    1184    2367   35602    1555    3131    1592    9896   19428      51      14       2       3       1       4       3      43       0       0       0       0       0       0       9      14       2       3       1       4       3       0       5     709
 2012 304   152    8201   0.268    8223   0.269    8208   0.268    8226   0.269     41209      59   41150    2163    4162    1879   11105   21842       4     100      11      18       5      22      44    5436     596    1009     281    1183    2367   35601    1555    3131    1592    9895   19428      55      14       2       3       1       4       3      46       0       0       0       0       0       0       9      14       2       3       1       4       3       0       5     710
 2012 305   153    8201   0.268    8222   0.269    8208   0.268    8226   0.269     41212      63   41149    2163    4161    1879   11105   21841       4     100      11      18       5      22      44    5435     596    1009     281    1183    2366   35601    1555    3131    1592    9895   19428      59      14       2       3       1       4       3      49       0       0       0       0       0       0      10      14       2       3       1       4       3       0       5     712
 2012 306   154    8201   0.268    8222   0.269    8207   0.268    8225   0.269     41215      68   41148    2163    4161    1879   11104   21840       4      99      11      18       5      22      44    5434     596    1009     281    1183    2366   35601    1555    3131    1592    9895   19427      64      14       2       3       1       4       3      53       0       0       0       0       0       0      11      14       2       3       1       4       3       0       6     713
 2012 307   155    8201   0.268    8222   0.269    8207   0.268    8225   0.269     41219      72   41146    2163    4161    1879   11104   21840       4      99      11      18       5      22      44    5433     596    1009     281    1182    2365   35601    1555    3131    1592    9895   19427      68      14       2       3       1       4       3      57       0       0       0       0       0       0      11      14       2       3       1       4       3       0       6     714
 2012 308   156    8201   0.268    8222   0.269    8207   0.268    8225   0.269     41222      77   41145    2163    4161    1879   11103   21839       4      99      11      18       5      22      44    5432     596    1009     281    1182    2365   35601    1555    3131    1592    9895   19427      73      14       2       3       1       4       3      61       0       0       0       0       0       0      12      14       2       3       1       4       3       0       6     716
 2012 309   157    8200   0.268    8221   0.269    8207   0.268    8224   0.269     41226      82   41144    2163    4161    1879   11103   21838       4      99      11      18       5      22      44    5431     596    1009     281    1182    2364   35600    1555    3131    1592    9895   19427      78      14       2       3       1       4       3      65       0       0       0       0       0       0      13      14       2       3       1       4       3       0       6     717
 2012 310   158    8200   0.268    8221   0.269    8207   0.268    8224   0.269     41230      87   41143    2163    4161    1879   11103   21838       4      99      11      18       5      22      44    5430     596    1009     281    1181    2364   35600    1555    3131    1592    9895   19427      83      14       2       3       1       4       3      69       0       0       0       0       0       0      13      14       2       3       1       4       3       0       6     718
 2012 311   159    8200   0.268    8221   0.269    8207   0.268    8224   0.269     41234      92   41142    2163    4161    1879   11102   21837       4      99      11      18       5      22      44    5429     596    1008     281    1181    2364   35600    1555    3131    1592    9895   19427      88      14       2       3       1       4       3      74       0       0       0       0       0       0      14      14       2       3       1       4       3       0       6     719
 2012 312   160    8200   0.268    8220   0.269    8207   0.268    8224   0.269     41239      98   41141    2163    4161    1879   11102   21837       4      99      11      18       5      22      44    5428     596    1008     280    1181    2363   35600    1555    3131    1592    9895   19427      94      14       2       3       1       4       3      78       0       0       0       0       0       0      15      14       2       3       1       4       3       0       6     720
 2012 313   161    8200   0.268    8220   0.269    8207   0.268    8223   0.269     41243     104   41140    2163    4161    1879   11101   21836       4      99      11      18       5      22      44    5428     596    1008     280    1181    2363   35600    1555    3131    1592    9895   19427      99      14       2       3       1       4       3      83       0       0       0       0       0       0      16      14       2       3       1       4       3       0       6     721
 2012 314   162    8200   0.268    8220   0.269    8207   0.268    8223   0.269     41248     109   41139    2163    4160    1879   11101   21836       5      99      11      18       5      22      44    5427     596    1008     280    1180    2362   35600    1555    3131    1592    9895   19427     105      14       2       3       1       4       3      88       0       0       0       0       0       0      17      14       2       3       1       4       3       0       6     722
 2012 315   163    8200   0.268    8220   0.269    8207   0.268    8223   0.269     41253     115   41138    2163    4160    1879   11101   21835       5      99      11      18       5      22      44    5426     596    1008     280    1180    2362   35600    1555    3131    1592    9895   19427     111      14       2       3       1       4       3      93       0       0       0       0       0       0      18      14       2       3       1       4       3       0       6     723
 2012 316   164    8200   0.268    8219   0.269    8206   0.268    8223   0.269     41258     121   41137    2163    4160    1879   11100   21835       5      99      11      18       5      22      44    5425     595    1008     280    1180    2362   35599    1555    3131    1592    9895   19427     117      14       2       3       1       4       3      98       0       0       0       0       0       0      19      14       2       3       1       4       3       0       6     724
 2012 317   165    8200   0.268    8219   0.269    8206   0.268    8222   0.269     41264     127   41136    2163    4160    1879   11100   21834       5      98      11      18       5      22      44    5425     595    1008     280    1180    2361   35599    1555    3131    1592    9895   19427     123      14       2       3       1       4       3     103       0       0       0       0       0       0      20      14       2       3       1       4       3       0       6     725
 2012 318   166    8200   0.268    8219   0.269    8206   0.268    8222   0.269     41269     134   41135    2163    4160    1879   11100   21834       5      98      11      18       5      22      44    5424     595    1008     280    1179    2361   35599    1555    3131    1592    9895   19426     129      14       2       3       1       4       3     108       0       0       0       0       0       0      20      14       2       3       1       4       3       0       6     725
 2012 319   167    8200   0.268    8219   0.269    8207   0.268    8222   0.269     41275     140   41135    2163    4160    1879   11100   21833       5      98      11      18       5      22      44    5424     595    1008     280    1179    2361   35599    1555    3131    1592    9895   19426     135      14       2       3       1       4       3     114       0       0       0       0       0       0      21      14       2       3       1       4       3       0       7     726
 2012 320   168    8200   0.268    8219   0.269    8207   0.268    8222   0.269     41280     147   41134    2163    4160    1879   11099   21833       5      98      11      18       5      22      44    5423     595    1008     280    1179    2360   35599    1555    3131    1592    9895   19426     142      14       2       3       1       4       3     119       0       0       0       0       0       0      22      14       2       3       1       4       3       0       7     727
 2012 321   169    8200   0.268    8218   0.269    8207   0.268    8222   0.269     41286     153   41133    2163    4160    1878   11099   21833       5      98      11      18       5      22      44    5422     595    1008     280    1179    2360   35599    1555    3131    1592    9895   19426     148      14       2       3       1       4       3     125       0       0       0       0       0       0      23      14       2       3       1       4       3       0       7     728
 2012 322   170    8200   0.268    8218   0.269    8207   0.268    8221   0.269     41292     160   41132    2163    4160    1878   11099   21832       5      98      11      18       5      22      44    5422     595    1008     280    1178    2360   35599    1555    3131    1592    9895   19426     155      14       2       3       1       4       3     130       0       0       0       0       0       0      24      14       2       3       1       4       3       0       7     728
 2012 323   171    8200   0.268    8218   0.269    8207   0.268    8221   0.269     41298     167   41132    2163    4160    1878   11099   21832       5      98      11      18       5      21      44    5421     595    1008     280    1178    2359   35599    1555    3131    1592    9894   19426     161      14       2       3       1       4       3     136       0       0       0       0       0       0      25      14       2       3       1       4       3       0       7     729
 2012 324   172    8200   0.268    8218   0.269    8207   0.268    8221   0.269     41305     174   41131    2163    4160    1878   11098   21831       5      98      11      18       5      21      44    5421     595    1008     280    1178    2359   35599    1555    3131    1592    9894   19426     168      14       2       3       1       4       3     142       0       0       0       0       0       0      27      14       2       3       1       4       3       0       7     730
 2012 325   173    8200   0.268    8218   0.269    8207   0.268    8221   0.269     41311     181   41130    2163    4160    1878   11098   21831       5      98      11      18       5      21      43    5420     595    1008     280    1178    2359   35598    1555    3131    1592    9894   19426     175      14       2       3       1       4       3     148       0       0       0       0       0       0      28      14       2       3       1       4       3       0       7     731
 2012 326   174    8200   0.268    8217   0.269    8207   0.268    8221   0.269     41317     188   41130    2163    4160    1878   11098   21831       6      98      11      18       5      21      43    5420     595    1008     280    1178    2358   35598    1555    3131    1592    9894   19426     182      14       2       3       1       4       3     153       0       0       0       0       0       0      29      14       2       3       1       4       3       0       7     731
 2012 327   175    8200   0.268    8217   0.269    8207   0.268    8220   0.269     41324     195   41129    2163    4160    1878   11098   21830       6      98      11      18       5      21      43    5419     595    1008     280    1178    2358   35598    1555    3131    1592    9894   19426     189      14       2       3       1       4       3     159       0       0       0       0       0       0      30      14       2       3       1       4       3       0       7     732
 2012 328   176    8200   0.268    8217   0.269    8207   0.268    8220   0.269     41330     202   41128    2163    4160    1878   11097   21830       6      98      11      18       5      21      43    5419     595    1008     280    1177    2358   35598    1555    3131    1592    9894   19426     196      14       2       3       1       4       3     165       0       0       0       0       0       0      31      14       2       3       1       4       3       0       8     733
 2012 329   177    8200   0.268    8217   0.269    8207   0.268    8220   0.269     41337     209   41127    2163    4160    1878   11097   21829       6      98      11      18       5      21      43    5418     595    1008     280    1177    2358   35598    1555    3131    1592    9894   19426     203      14       2       3       1       4       3     171       0       0       0       0       0       0      32      14       2       3       1       4       3       0       8     733
 2012 330   178    8200   0.268    8217   0.269    8207   0.268    8220   0.269     41343     217   41127    2163    4160    1878   11097   21829       6      98      11      18       5      21      43    5418     595    1008     280    1177    2357   35598    1555    3131    1592    9894   19426     211      14       2       3       1       4       3     178       0       0       0       0       0       0      33      14       2       3       1       4       3       0       8     734
 2012 331   179    8201   0.268    8217   0.269    8207   0.268    8220   0.269     41350     224   41126    2163    4160    1878   11097   21829       6      98      11      18       5      21      43    5417     595    1008     280    1177    2357   35598    1555    3131    1592    9894   19426     218      14       2       3       1       4       3     184       0       0       0       0       0       0      34      14       2       3       1       4       3       0       8     735
 2012 332   180    8201   0.268    8216   0.269    8207   0.268    8219   0.269     41349     224   41125    2163    4160    1878   11096   21828       6      98      11      18       5      21      43    5417     595    1008     280    1177    2357   35598    1555    3131    1592    9894   19426     217      14       2       3       1       4       3     183       0       0       0       0       0       0      34      14       2       3       1       4       3       0       8     735
 2012 333   181    8201   0.268    8216   0.269    8207   0.268    8219   0.269     41348     224   41125    2163    4160    1878   11096   21828       6      98      11      18       5      21      43    5416     595    1008     280    1176    2356   35598    1555    3131    1592    9894   19426     217      14       2       3       1       4       3     183       0       0       0       0       0       0      34      14       2       3       1       4       3       0       8     736
